REMARK  5 active torsions:
REMARK  status: ('A' for Active; 'I' for Inactive)
REMARK    1  A    between atoms: O1_1  and  C9_15 
REMARK    2  A    between atoms: O2_2  and  C11_17 
REMARK    3  A    between atoms: O3_3  and  C15_21 
REMARK    4  A    between atoms: O4_4  and  C17_23 
REMARK    5  A    between atoms: O5_5  and  C18_24 
ROOT
ATOM      1  N   HET A   1       3.689  -3.498   0.253  0.00  0.00    -0.309 N 
ATOM      2  C1  HET A   1       2.289  -3.687   0.259  0.00  0.00     0.048 A 
ATOM      3  C2  HET A   1       1.509  -2.496   0.164  0.00  0.00     0.007 A 
ATOM      4  C3  HET A   1       2.085  -1.158   0.090  0.00  0.00     0.025 A 
ATOM      5  C4  HET A   1       1.631  -4.980   0.353  0.00  0.00     0.007 A 
ATOM      6  C5  HET A   1       3.514  -1.071   0.073  0.00  0.00     0.032 A 
ATOM      7  C6  HET A   1       0.216  -5.028   0.337  0.00  0.00    -0.014 A 
ATOM      8  C7  HET A   1       4.247  -2.297   0.176  0.00  0.00     0.086 A 
ATOM      9  C8  HET A   1       0.089  -2.605   0.133  0.00  0.00     0.011 A 
ATOM     10  C9  HET A   1       1.388   0.084   0.032  0.00  0.00     0.086 A 
ATOM     11  C10 HET A   1      -0.531  -3.823   0.213  0.00  0.00     0.010 A 
ATOM     12  C11 HET A   1       4.211   0.156  -0.020  0.00  0.00     0.114 A 
ATOM     13  C12 HET A   1       2.253  -6.271   0.467  0.00  0.00     0.047 A 
ATOM     14  C13 HET A   1       4.628  -4.628   0.338  0.00  0.00     0.136 C 
ATOM     15  C14 HET A   1      -0.534  -6.232   0.445  0.00  0.00     0.045 A 
ATOM     16  C15 HET A   1       3.462   1.361   0.001  0.00  0.00     0.108 A 
ATOM     17  C16 HET A   1       2.068   1.299   0.003  0.00  0.00     0.070 A 
ATOM     18  C17 HET A   1       1.541  -7.447   0.578  0.00  0.00     0.105 A 
ATOM     19  C18 HET A   1       0.104  -7.446   0.578  0.00  0.00     0.105 A 
ENDROOT
BRANCH  10  20
ATOM     20  O1  HET A   1       0.036   0.054   0.017  0.00  0.00    -0.349 OA
ATOM     21  C19 HET A   1      -0.722   1.261  -0.054  0.00  0.00     0.203 C 
ENDBRANCH  10  20
BRANCH  16  22
ATOM     22  O3  HET A   1       4.206   2.489   0.017  0.00  0.00    -0.346 OA
ATOM     23  C21 HET A   1       3.506   3.740   0.017  0.00  0.00     0.203 C 
ENDBRANCH  16  22
BRANCH  12  24
ATOM     24  O2  HET A   1       5.570   0.054   0.017  0.00  0.00    -0.346 OA
ATOM     25  C20 HET A   1       6.372   0.993  -0.699  0.00  0.00     0.203 C 
ENDBRANCH  12  24
BRANCH  18  26
ATOM     26  O4  HET A   1       2.078  -8.689   0.709  0.00  0.00    -0.347 OA
ATOM     27  C22 HET A   1       3.488  -8.888   0.705  0.00  0.00     0.203 C 
ENDBRANCH  18  26
BRANCH  19  28
ATOM     28  O5  HET A   1      -0.758  -8.484   0.676  0.00  0.00    -0.347 OA
ATOM     29  C23 HET A   1      -0.286  -9.786   1.016  0.00  0.00     0.203 C 
ENDBRANCH  19  28
TORSDOF 5
