442971
  Mrv2503 08252501343D            

133141  0  0  1  0            999 V2000
   -5.9825    1.8028   -2.0706 O   0  0  0  0  0  0  0  0  0  0  0  0
   -3.8850    1.7829   -0.9914 O   0  0  0  0  0  0  0  0  0  0  0  0
   -5.3432    4.3997   -3.1114 O   0  0  0  0  0  0  0  0  0  0  0  0
   -2.8100    5.6297   -1.7454 O   0  0  0  0  0  0  0  0  0  0  0  0
   -0.6167    3.5692   -1.6289 O   0  0  0  0  0  0  0  0  0  0  0  0
   -5.9252    6.5063   -2.1621 O   0  0  0  0  0  0  0  0  0  0  0  0
   -2.1216   -0.1914    0.0940 O   0  0  0  0  0  0  0  0  0  0  0  0
   -0.1956    1.7839   -3.1528 O   0  0  0  0  0  0  0  0  0  0  0  0
   -5.7547    5.4595   -5.7113 O   0  0  0  0  0  0  0  0  0  0  0  0
   -5.1336    8.1567   -5.2868 O   0  0  0  0  0  0  0  0  0  0  0  0
    1.5064    5.0368   -2.8860 O   0  0  0  0  0  0  0  0  0  0  0  0
   -8.2109    8.1763   -3.3006 O   0  0  0  0  0  0  0  0  0  0  0  0
    1.3503    4.0512   -5.5045 O   0  0  0  0  0  0  0  0  0  0  0  0
    2.5482    0.9182   -4.0569 O   0  0  0  0  0  0  0  0  0  0  0  0
   -6.2145   -9.0739   -6.3603 N   0  0  2  0  0  0  0  0  0  0  0  0
   -7.9184   -6.5371   -4.6620 C   0  0  2  0  0  0  0  0  0  0  0  0
   -7.6783   -8.1024   -4.6980 C   0  0  2  0  0  0  0  0  0  0  0  0
   -6.4704   -6.0454   -4.3233 C   0  0  2  0  0  0  0  0  0  0  0  0
   -6.1874   -8.2981   -5.1038 C   0  0  2  0  0  0  0  0  0  0  0  0
   -6.3169   -4.4923   -4.3274 C   0  0  1  0  0  0  0  0  0  0  0  0
   -5.5595   -6.8905   -5.2367 C   0  0  2  0  0  0  0  0  0  0  0  0
   -8.4650   -9.0455   -5.6811 C   0  0  1  0  0  0  0  0  0  0  0  0
   -7.3142   -3.8153   -3.3133 C   0  0  2  0  0  0  0  0  0  0  0  0
   -8.8113   -6.0037   -3.4845 C   0  0  1  0  0  0  0  0  0  0  0  0
   -7.3672   -9.9969   -6.2293 C   0  0  1  0  0  0  0  0  0  0  0  0
   -8.7610   -4.4455   -3.3379 C   0  0  2  0  0  0  0  0  0  0  0  0
   -7.2097   -2.2190   -3.4206 C   0  0  2  0  0  0  0  0  0  0  0  0
   -8.4937   -6.0027   -6.0304 C   0  0  0  0  0  0  0  0  0  0  0  0
   -4.8751   -4.0410   -3.9650 C   0  0  1  0  0  0  0  0  0  0  0  0
   -7.6561  -10.6700   -7.6019 C   0  0  2  0  0  0  0  0  0  0  0  0
   -4.9450   -9.7246   -6.7928 C   0  0  1  0  0  0  0  0  0  0  0  0
   -9.6805   -9.7656   -5.0456 C   0  0  0  0  0  0  0  0  0  0  0  0
   -5.7858   -1.7615   -3.5188 C   0  0  0  0  0  0  0  0  0  0  0  0
   -5.1554  -10.3755   -8.1923 C   0  0  2  0  0  0  0  0  0  0  0  0
   -7.8258   -1.5680   -2.1200 C   0  0  2  0  0  0  0  0  0  0  0  0
   -6.3750  -11.3503   -8.1594 C   0  0  2  0  0  0  0  0  0  0  0  0
   -4.7556   -2.6132   -3.7477 C   0  0  0  0  0  0  0  0  0  0  0  0
   -7.9997   -1.6934   -4.6783 C   0  0  0  0  0  0  0  0  0  0  0  0
   -5.4761   -0.3231   -3.3632 C   0  0  1  0  0  0  0  0  0  0  0  0
   -7.6075   -0.0301   -1.9926 C   0  0  1  0  0  0  0  0  0  0  0  0
   -6.1058    0.3449   -2.1004 C   0  0  2  0  0  0  0  0  0  0  0  0
   -3.8715  -11.0793   -8.7084 C   0  0  0  0  0  0  0  0  0  0  0  0
   -4.6318    2.3301   -2.1008 C   0  0  2  0  0  0  0  0  0  0  0  0
   -4.5286    3.8798   -2.0274 C   0  0  1  0  0  0  0  0  0  0  0  0
   -3.0112    4.2690   -2.1339 C   0  0  2  0  0  0  0  0  0  0  0  0
   -2.4605    1.8928   -1.1522 C   0  0  1  0  0  0  0  0  0  0  0  0
   -2.0242    3.3908   -1.2866 C   0  0  1  0  0  0  0  0  0  0  0  0
   -1.7831    1.1908    0.0518 C   0  0  1  0  0  0  0  0  0  0  0  0
   -5.3940    5.8295   -3.3258 C   0  0  2  0  0  0  0  0  0  0  0  0
   -6.2836    6.1208   -4.5616 C   0  0  1  0  0  0  0  0  0  0  0  0
   -0.1222    3.2112   -2.9457 C   0  0  2  0  0  0  0  0  0  0  0  0
   -6.3817    7.6515   -4.8110 C   0  0  1  0  0  0  0  0  0  0  0  0
   -6.0316    7.9494   -2.2511 C   0  0  2  0  0  0  0  0  0  0  0  0
    1.3635    3.6317   -3.0879 C   0  0  1  0  0  0  0  0  0  0  0  0
   -6.8184    8.4065   -3.5225 C   0  0  2  0  0  0  0  0  0  0  0  0
    1.9149    3.2247   -4.4869 C   0  0  1  0  0  0  0  0  0  0  0  0
    0.1827    1.2902   -4.4551 C   0  0  2  0  0  0  0  0  0  0  0  0
    1.6393    1.7255   -4.8074 C   0  0  2  0  0  0  0  0  0  0  0  0
   -4.6583    8.6444   -2.0540 C   0  0  0  0  0  0  0  0  0  0  0  0
   -0.8903    1.6062   -5.5319 C   0  0  0  0  0  0  0  0  0  0  0  0
   -7.7893   -8.4935   -3.6787 H   0  0  0  0  0  0  0  0  0  0  0  0
   -6.2180   -6.3571   -3.2972 H   0  0  0  0  0  0  0  0  0  0  0  0
   -5.6645   -8.8598   -4.3177 H   0  0  0  0  0  0  0  0  0  0  0  0
   -6.5043   -4.1386   -5.3411 H   0  0  0  0  0  0  0  0  0  0  0  0
   -4.5209   -6.8851   -4.8913 H   0  0  0  0  0  0  0  0  0  0  0  0
   -5.5951   -6.5320   -6.2679 H   0  0  0  0  0  0  0  0  0  0  0  0
   -8.8530   -8.4938   -6.5368 H   0  0  0  0  0  0  0  0  0  0  0  0
   -6.9377   -4.0901   -2.3189 H   0  0  0  0  0  0  0  0  0  0  0  0
   -9.8466   -6.3168   -3.6346 H   0  0  0  0  0  0  0  0  0  0  0  0
   -8.4860   -6.4448   -2.5381 H   0  0  0  0  0  0  0  0  0  0  0  0
   -7.1536  -10.7812   -5.4904 H   0  0  0  0  0  0  0  0  0  0  0  0
   -9.3563   -4.0253   -4.1468 H   0  0  0  0  0  0  0  0  0  0  0  0
   -9.2722   -4.1818   -2.4056 H   0  0  0  0  0  0  0  0  0  0  0  0
   -7.9251   -6.3802   -6.8794 H   0  0  0  0  0  0  0  0  0  0  0  0
   -9.5335   -6.3178   -6.1479 H   0  0  0  0  0  0  0  0  0  0  0  0
   -8.4817   -4.9177   -6.1045 H   0  0  0  0  0  0  0  0  0  0  0  0
   -4.5353   -4.5463   -3.0564 H   0  0  0  0  0  0  0  0  0  0  0  0
   -4.1983   -4.3229   -4.7789 H   0  0  0  0  0  0  0  0  0  0  0  0
   -8.0030   -9.9249   -8.3234 H   0  0  0  0  0  0  0  0  0  0  0  0
   -8.4403  -11.4224   -7.4859 H   0  0  0  0  0  0  0  0  0  0  0  0
   -4.1589   -8.9667   -6.8620 H   0  0  0  0  0  0  0  0  0  0  0  0
   -4.6291  -10.4793   -6.0642 H   0  0  0  0  0  0  0  0  0  0  0  0
   -9.3707  -10.3957   -4.2108 H   0  0  0  0  0  0  0  0  0  0  0  0
  -10.3987   -9.0261   -4.6859 H   0  0  0  0  0  0  0  0  0  0  0  0
  -10.1795  -10.3913   -5.7883 H   0  0  0  0  0  0  0  0  0  0  0  0
   -5.3869   -9.5708   -8.8996 H   0  0  0  0  0  0  0  0  0  0  0  0
   -7.3793   -2.0316   -1.2354 H   0  0  0  0  0  0  0  0  0  0  0  0
   -8.9006   -1.7632   -2.0685 H   0  0  0  0  0  0  0  0  0  0  0  0
   -6.5804  -11.7189   -9.1692 H   0  0  0  0  0  0  0  0  0  0  0  0
   -6.1324  -12.2109   -7.5304 H   0  0  0  0  0  0  0  0  0  0  0  0
   -3.8247   -2.2613   -3.7741 H   0  0  0  0  0  0  0  0  0  0  0  0
   -9.0744   -1.8426   -4.5661 H   0  0  0  0  0  0  0  0  0  0  0  0
   -7.6860   -2.1962   -5.5916 H   0  0  0  0  0  0  0  0  0  0  0  0
   -7.8603   -0.6259   -4.8463 H   0  0  0  0  0  0  0  0  0  0  0  0
   -4.3966   -0.1611   -3.3043 H   0  0  0  0  0  0  0  0  0  0  0  0
   -5.8156    0.2128   -4.2509 H   0  0  0  0  0  0  0  0  0  0  0  0
   -8.1747    0.4911   -2.7663 H   0  0  0  0  0  0  0  0  0  0  0  0
   -7.9938    0.3072   -1.0265 H   0  0  0  0  0  0  0  0  0  0  0  0
   -5.6131   -0.0677   -1.2128 H   0  0  0  0  0  0  0  0  0  0  0  0
   -3.0393  -10.3732   -8.7487 H   0  0  0  0  0  0  0  0  0  0  0  0
   -4.0364  -11.4696   -9.7149 H   0  0  0  0  0  0  0  0  0  0  0  0
   -3.5941  -11.9080   -8.0547 H   0  0  0  0  0  0  0  0  0  0  0  0
   -4.1993    2.0469   -3.0670 H   0  0  0  0  0  0  0  0  0  0  0  0
   -4.9362    4.2118   -1.0680 H   0  0  0  0  0  0  0  0  0  0  0  0
   -2.7560    4.1931   -3.1892 H   0  0  0  0  0  0  0  0  0  0  0  0
   -2.2028    1.3232   -2.0434 H   0  0  0  0  0  0  0  0  0  0  0  0
   -2.0956    3.7932   -0.2716 H   0  0  0  0  0  0  0  0  0  0  0  0
   -2.1064    1.6525    0.9877 H   0  0  0  0  0  0  0  0  0  0  0  0
   -0.6972    1.2747   -0.0266 H   0  0  0  0  0  0  0  0  0  0  0  0
   -4.3900    6.1891   -3.5584 H   0  0  0  0  0  0  0  0  0  0  0  0
   -3.0986    5.6752   -0.8083 H   0  0  0  0  0  0  0  0  0  0  0  0
   -7.2855    5.7219   -4.3781 H   0  0  0  0  0  0  0  0  0  0  0  0
   -0.6865    3.7524   -3.7049 H   0  0  0  0  0  0  0  0  0  0  0  0
   -1.6521   -0.5379    0.8830 H   0  0  0  0  0  0  0  0  0  0  0  0
   -7.1166    7.8334   -5.6002 H   0  0  0  0  0  0  0  0  0  0  0  0
   -6.6253    8.2496   -1.3818 H   0  0  0  0  0  0  0  0  0  0  0  0
    1.9453    3.1247   -2.3123 H   0  0  0  0  0  0  0  0  0  0  0  0
   -6.6974    9.4842   -3.6710 H   0  0  0  0  0  0  0  0  0  0  0  0
    2.9938    3.4026   -4.5032 H   0  0  0  0  0  0  0  0  0  0  0  0
   -6.3909    5.6500   -6.4330 H   0  0  0  0  0  0  0  0  0  0  0  0
    0.1806    0.1999   -4.3632 H   0  0  0  0  0  0  0  0  0  0  0  0
    1.8403    1.5279   -5.8646 H   0  0  0  0  0  0  0  0  0  0  0  0
   -3.9919    8.4690   -2.8976 H   0  0  0  0  0  0  0  0  0  0  0  0
   -4.7943    9.7214   -1.9368 H   0  0  0  0  0  0  0  0  0  0  0  0
   -4.1812    8.2603   -1.1501 H   0  0  0  0  0  0  0  0  0  0  0  0
   -5.2933    9.1078   -5.4662 H   0  0  0  0  0  0  0  0  0  0  0  0
    2.4693    5.2055   -2.9677 H   0  0  0  0  0  0  0  0  0  0  0  0
   -8.6636    8.5600   -4.0814 H   0  0  0  0  0  0  0  0  0  0  0  0
   -1.8786    1.3355   -5.1539 H   0  0  0  0  0  0  0  0  0  0  0  0
   -0.7005    1.0283   -6.4381 H   0  0  0  0  0  0  0  0  0  0  0  0
   -0.9011    2.6628   -5.7949 H   0  0  0  0  0  0  0  0  0  0  0  0
    1.7764    3.7546   -6.3376 H   0  0  0  0  0  0  0  0  0  0  0  0
    3.4382    1.1556   -4.3936 H   0  0  0  0  0  0  0  0  0  0  0  0
 41  1  1  0  0  0  0
 43  1  1  0  0  0  0
  2 43  1  0  0  0  0
  2 46  1  0  0  0  0
 44  3  1  0  0  0  0
 49  3  1  0  0  0  0
 45  4  1  0  0  0  0
  4111  1  0  0  0  0
 47  5  1  0  0  0  0
 51  5  1  0  0  0  0
  6 49  1  0  0  0  0
  6 53  1  0  0  0  0
  7 48  1  0  0  0  0
  7114  1  0  0  0  0
  8 51  1  0  0  0  0
  8 57  1  0  0  0  0
 50  9  1  0  0  0  0
  9120  1  0  0  0  0
 52 10  1  0  0  0  0
 10126  1  0  0  0  0
 54 11  1  0  0  0  0
 11127  1  0  0  0  0
 55 12  1  0  0  0  0
 12128  1  0  0  0  0
 56 13  1  0  0  0  0
 13132  1  0  0  0  0
 58 14  1  0  0  0  0
 14133  1  0  0  0  0
 15 19  1  0  0  0  0
 15 25  1  0  0  0  0
 15 31  1  0  0  0  0
 16 17  1  0  0  0  0
 16 18  1  0  0  0  0
 16 24  1  0  0  0  0
 16 28  1  0  0  0  0
 17 19  1  0  0  0  0
 17 22  1  0  0  0  0
 17 61  1  0  0  0  0
 18 20  1  0  0  0  0
 18 21  1  0  0  0  0
 18 62  1  0  0  0  0
 19 21  1  0  0  0  0
 19 63  1  0  0  0  0
 20 23  1  0  0  0  0
 20 29  1  0  0  0  0
 20 64  1  0  0  0  0
 21 65  1  0  0  0  0
 21 66  1  0  0  0  0
 22 25  1  0  0  0  0
 22 32  1  0  0  0  0
 22 67  1  0  0  0  0
 23 26  1  0  0  0  0
 23 27  1  0  0  0  0
 23 68  1  0  0  0  0
 24 26  1  0  0  0  0
 24 69  1  0  0  0  0
 24 70  1  0  0  0  0
 25 30  1  0  0  0  0
 25 71  1  0  0  0  0
 26 72  1  0  0  0  0
 26 73  1  0  0  0  0
 27 33  1  0  0  0  0
 27 35  1  0  0  0  0
 27 38  1  0  0  0  0
 28 74  1  0  0  0  0
 28 75  1  0  0  0  0
 28 76  1  0  0  0  0
 29 37  1  0  0  0  0
 29 77  1  0  0  0  0
 29 78  1  0  0  0  0
 30 36  1  0  0  0  0
 30 79  1  0  0  0  0
 30 80  1  0  0  0  0
 31 34  1  0  0  0  0
 31 81  1  0  0  0  0
 31 82  1  0  0  0  0
 32 83  1  0  0  0  0
 32 84  1  0  0  0  0
 32 85  1  0  0  0  0
 33 37  2  0  0  0  0
 33 39  1  0  0  0  0
 34 36  1  0  0  0  0
 34 42  1  0  0  0  0
 34 86  1  0  0  0  0
 35 40  1  0  0  0  0
 35 87  1  0  0  0  0
 35 88  1  0  0  0  0
 36 89  1  0  0  0  0
 36 90  1  0  0  0  0
 37 91  1  0  0  0  0
 38 92  1  0  0  0  0
 38 93  1  0  0  0  0
 38 94  1  0  0  0  0
 39 41  1  0  0  0  0
 39 95  1  0  0  0  0
 39 96  1  0  0  0  0
 40 41  1  0  0  0  0
 40 97  1  0  0  0  0
 40 98  1  0  0  0  0
 41 99  1  0  0  0  0
 42100  1  0  0  0  0
 42101  1  0  0  0  0
 42102  1  0  0  0  0
 43 44  1  0  0  0  0
 43103  1  0  0  0  0
 44 45  1  0  0  0  0
 44104  1  0  0  0  0
 45 47  1  0  0  0  0
 45105  1  0  0  0  0
 46 47  1  0  0  0  0
 46 48  1  0  0  0  0
 46106  1  0  0  0  0
 47107  1  0  0  0  0
 48108  1  0  0  0  0
 48109  1  0  0  0  0
 49 50  1  0  0  0  0
 49110  1  0  0  0  0
 50 52  1  0  0  0  0
 50112  1  0  0  0  0
 51 54  1  0  0  0  0
 51113  1  0  0  0  0
 52 55  1  0  0  0  0
 52115  1  0  0  0  0
 53 55  1  0  0  0  0
 53 59  1  0  0  0  0
 53116  1  0  0  0  0
 54 56  1  0  0  0  0
 54117  1  0  0  0  0
 55118  1  0  0  0  0
 56 58  1  0  0  0  0
 56119  1  0  0  0  0
 57 58  1  0  0  0  0
 57 60  1  0  0  0  0
 57121  1  0  0  0  0
 58122  1  0  0  0  0
 59123  1  0  0  0  0
 59124  1  0  0  0  0
 59125  1  0  0  0  0
 60129  1  0  0  0  0
 60130  1  0  0  0  0
 60131  1  0  0  0  0
M  END
>  <PUBCHEM_COMPOUND_CID>
442971

>  <PUBCHEM_COMPOUND_CANONICALIZED>
1

>  <PUBCHEM_CACTVS_COMPLEXITY>
1570

>  <PUBCHEM_CACTVS_HBOND_ACCEPTOR>
15

>  <PUBCHEM_CACTVS_HBOND_DONOR>
8

>  <PUBCHEM_CACTVS_ROTATABLE_BOND>
7

>  <PUBCHEM_CACTVS_SUBSKEYS>
AAADcfB+PAAAAAAAAAAAAAAAAAAAAeIAAAA8aJEiAAAWAHiAAAAAHgAACAAADzzxgAcCCAMABgCAAiBCAAAAAAAgAAAACAAIAAgREAIAgQAmQAAFwACPAAPQ4PwPgAAAAAAAAADAAAQAACAAASAACQAAAA==

>  <PUBCHEM_IUPAC_OPENEYE_NAME>
(2S,3R,4R,5R,6S)-2-[(2R,3S,4S,5R,6R)-4-hydroxy-2-(hydroxymethyl)-6-[[(1S,2S,7S,10R,11S,14S,15R,16S,17R,20S,23S)-10,14,16,20-tetramethyl-22-azahexacyclo[12.10.0.02,11.05,10.015,23.017,22]tetracos-4-en-7-yl]oxy]-5-[(2S,3R,4R,5R,6S)-3,4,5-trihydroxy-6-methyl-tetrahydropyran-2-yl]oxy-tetrahydropyran-3-yl]oxy-6-methyl-tetrahydropyran-3,4,5-triol

>  <PUBCHEM_IUPAC_CAS_NAME>
(2S,3R,4R,5R,6S)-2-[[(2R,3S,4S,5R,6R)-4-hydroxy-2-(hydroxymethyl)-6-[[(1S,2S,7S,10R,11S,14S,15R,16S,17R,20S,23S)-10,14,16,20-tetramethyl-22-azahexacyclo[12.10.0.02,11.05,10.015,23.017,22]tetracos-4-en-7-yl]oxy]-5-[[(2S,3R,4R,5R,6S)-3,4,5-trihydroxy-6-methyl-2-oxanyl]oxy]-3-oxanyl]oxy]-6-methyloxane-3,4,5-triol

>  <PUBCHEM_IUPAC_NAME_MARKUP>
(2<I>S</I>,3<I>R</I>,4<I>R</I>,5<I>R</I>,6<I>S</I>)-2-[(2<I>R</I>,3<I>S</I>,4<I>S</I>,5<I>R</I>,6<I>R</I>)-4-hydroxy-2-(hydroxymethyl)-6-[[(1<I>S</I>,2<I>S</I>,7<I>S</I>,10<I>R</I>,11<I>S</I>,14<I>S</I>,15<I>R</I>,16<I>S</I>,17<I>R</I>,20<I>S</I>,23<I>S</I>)-10,14,16,20-tetramethyl-22-azahexacyclo[12.10.0.0<SUP>2,11</SUP>.0<SUP>5,10</SUP>.0<SUP>15,23</SUP>.0<SUP>17,22</SUP>]tetracos-4-en-7-yl]oxy]-5-[(2<I>S</I>,3<I>R</I>,4<I>R</I>,5<I>R</I>,6<I>S</I>)-3,4,5-trihydroxy-6-methyloxan-2-yl]oxyoxan-3-yl]oxy-6-methyloxane-3,4,5-triol

>  <PUBCHEM_IUPAC_NAME>
(2S,3R,4R,5R,6S)-2-[(2R,3S,4S,5R,6R)-4-hydroxy-2-(hydroxymethyl)-6-[[(1S,2S,7S,10R,11S,14S,15R,16S,17R,20S,23S)-10,14,16,20-tetramethyl-22-azahexacyclo[12.10.0.02,11.05,10.015,23.017,22]tetracos-4-en-7-yl]oxy]-5-[(2S,3R,4R,5R,6S)-3,4,5-trihydroxy-6-methyloxan-2-yl]oxyoxan-3-yl]oxy-6-methyloxane-3,4,5-triol

>  <PUBCHEM_IUPAC_SYSTEMATIC_NAME>
(2S,3R,4R,5R,6S)-2-[(2R,3S,4S,5R,6R)-2-(hydroxymethyl)-5-[(2S,3R,4R,5R,6S)-6-methyl-3,4,5-tris(oxidanyl)oxan-2-yl]oxy-4-oxidanyl-6-[[(1S,2S,7S,10R,11S,14S,15R,16S,17R,20S,23S)-10,14,16,20-tetramethyl-22-azahexacyclo[12.10.0.02,11.05,10.015,23.017,22]tetracos-4-en-7-yl]oxy]oxan-3-yl]oxy-6-methyl-oxane-3,4,5-triol

>  <PUBCHEM_IUPAC_TRADITIONAL_NAME>
(2S,3R,4R,5R,6S)-2-[(2R,3S,4S,5R,6R)-4-hydroxy-2-methylol-6-[[(1S,2S,7S,10R,11S,14S,15R,16S,17R,20S,23S)-10,14,16,20-tetramethyl-22-azahexacyclo[12.10.0.02,11.05,10.015,23.017,22]tetracos-4-en-7-yl]oxy]-5-[(2S,3R,4R,5R,6S)-3,4,5-trihydroxy-6-methyl-tetrahydropyran-2-yl]oxy-tetrahydropyran-3-yl]oxy-6-methyl-tetrahydropyran-3,4,5-triol

>  <PUBCHEM_IUPAC_INCHI>
InChI=1S/C45H73NO14/c1-19-7-10-28-20(2)31-29(46(28)17-19)16-27-25-9-8-23-15-24(11-13-44(23,5)26(25)12-14-45(27,31)6)57-43-40(60-42-37(53)35(51)33(49)22(4)56-42)38(54)39(30(18-47)58-43)59-41-36(52)34(50)32(48)21(3)55-41/h8,19-22,24-43,47-54H,7,9-18H2,1-6H3/t19-,20+,21-,22-,24-,25+,26-,27-,28+,29-,30+,31-,32-,33-,34+,35+,36+,37+,38-,39+,40+,41-,42-,43+,44-,45-/m0/s1

>  <PUBCHEM_IUPAC_INCHIKEY>
TYNQWWGVEGFKRU-AJDPQWBVSA-N

>  <PUBCHEM_XLOGP3_AA>
1.8

>  <PUBCHEM_EXACT_MASS>
851.50310600

>  <PUBCHEM_MOLECULAR_FORMULA>
C45H73NO14

>  <PUBCHEM_MOLECULAR_WEIGHT>
852.1

>  <PUBCHEM_SMILES>
C[C@H]1CC[C@@H]2[C@H]([C@H]3[C@@H](N2C1)C[C@@H]4[C@@]3(CC[C@H]5[C@H]4CC=C6[C@@]5(CC[C@@H](C6)O[C@H]7[C@@H]([C@H]([C@@H]([C@H](O7)CO)O[C@H]8[C@@H]([C@@H]([C@H]([C@@H](O8)C)O)O)O)O)O[C@H]9[C@@H]([C@@H]([C@H]([C@@H](O9)C)O)O)O)C)C)C

>  <PUBCHEM_CONNECTIVITY_SMILES>
CC1CCC2C(C3C(N2C1)CC4C3(CCC5C4CC=C6C5(CCC(C6)OC7C(C(C(C(O7)CO)OC8C(C(C(C(O8)C)O)O)O)O)OC9C(C(C(C(O9)C)O)O)O)C)C)C

>  <PUBCHEM_CACTVS_TPSA>
220

>  <PUBCHEM_MONOISOTOPIC_WEIGHT>
851.50310600

>  <PUBCHEM_TOTAL_CHARGE>
0

>  <PUBCHEM_HEAVY_ATOM_COUNT>
60

>  <PUBCHEM_ATOM_DEF_STEREO_COUNT>
26

>  <PUBCHEM_ATOM_UDEF_STEREO_COUNT>
0

>  <PUBCHEM_BOND_DEF_STEREO_COUNT>
0

>  <PUBCHEM_BOND_UDEF_STEREO_COUNT>
0

>  <PUBCHEM_ISOTOPIC_ATOM_COUNT>
0

>  <PUBCHEM_COMPONENT_COUNT>
1

>  <PUBCHEM_CACTVS_TAUTO_COUNT>
-1

>  <PUBCHEM_COORDINATE_TYPE>
1
5
255

>  <PUBCHEM_BONDANNOTATIONS>
41  1  5
43  1  5
52  10  5
54  11  6
55  12  6
56  13  6
58  14  5
16  28  5
17  61  6
18  62  6
19  63  6
20  64  5
22  32  6
23  68  6
25  71  6
27  38  5
44  3  6
49  3  6
34  42  6
45  4  5
46  48  5
47  5  6
51  5  5
53  59  5
57  60  6
50  9  5

$$$$
