@<TRIPOS>MOLECULE
chelilutine.pdb
48 52 1 0 0
SMALL
AMBER ff14SB


@<TRIPOS>ATOM
      1 O1          0.2710   -0.0940   -0.0930 O.3       1 HET   -0.3160
      2 O2          2.6310   -0.0940   -0.0930 O.3       1 HET   -0.3160
      3 O3          1.7200    8.3870   -0.0930 O.3       1 HET   -0.3486
      4 O4         -3.5350    8.1140   -1.7120 O.3       1 HET   -0.3459
      5 O5         -2.2820   10.6810   -0.9900 O.3       1 HET   -0.3465
      6 N          -1.2320    4.7420   -1.7900 N.ar      1 HET   -0.3086
      7 C1          0.0570    4.7090   -1.2430 C.ar      1 HET    0.0483
      8 C2          0.7180    5.9430   -1.0300 C.ar      1 HET    0.0072
      9 C3         -0.0440    7.1530   -0.9820 C.ar      1 HET    0.0252
     10 C4          0.7190    3.4730   -0.9100 C.ar      1 HET    0.0066
     11 C5         -1.4060    7.1030   -1.3530 C.ar      1 HET    0.0320
     12 C6          2.1270    3.4920   -0.7950 C.ar      1 HET   -0.0137
     13 C7         -1.9330    5.8700   -1.8440 C.ar      1 HET    0.0062
     14 C8          2.1390    5.9180   -0.9170 C.ar      1 HET   -0.0517
     15 C9          2.8200    4.7380   -0.8670 C.ar      1 HET   -0.0535
     16 C10        -0.0010    2.2760   -0.6220 C.ar      1 HET   -0.0192
     17 C11         0.4520    8.4230   -0.5420 C.ar      1 HET    0.0859
     18 C12        -2.2290    8.2420   -1.3170 C.ar      1 HET    0.1140
     19 C13         2.8780    2.3020   -0.5530 C.ar      1 HET   -0.0210
     20 C14         0.7320    1.1550   -0.3760 C.ar      1 HET    0.1090
     21 C15         2.1670    1.1590   -0.3630 C.ar      1 HET    0.1090
     22 C16        -1.7940    3.5700   -2.4790 C.3       1 HET    0.0047
     23 C17        -1.6820    9.4840   -0.9850 C.ar      1 HET    0.1080
     24 C18        -0.3330    9.5580   -0.5670 C.ar      1 HET    0.0020
     25 C19         1.4530   -0.9160    0.0930 C.3       1 HET    0.1585
     26 C20         2.2870    9.5960    0.4120 C.3       1 HET    0.0422
     27 C21        -4.3940    7.7210   -0.6380 C.3       1 HET    0.0424
     28 C22        -3.5660   10.8010   -1.6030 C.3       1 HET    0.0423
     29 H7         -2.9370    5.8750   -2.3100 H         1 HET    0.0799
     30 H8          2.6950    6.8610   -0.9170 H         1 HET    0.0630
     31 H9          3.9160    4.7270   -0.8420 H         1 HET    0.0630
     32 H10        -1.0810    2.2610   -0.5250 H         1 HET    0.0659
     33 H13         3.9660    2.3300   -0.5080 H         1 HET    0.0658
     34 H161       -2.3600    3.8700   -3.3850 H         1 HET    0.0436
     35 H162       -0.9970    2.8770   -2.8260 H         1 HET    0.0436
     36 H163       -2.4830    3.0060   -1.8180 H         1 HET    0.0436
     37 H18         0.0530   10.5360   -0.2690 H         1 HET    0.0680
     38 H191        1.4520   -1.6870   -0.6930 H         1 HET    0.0893
     39 H192        1.4520   -1.2740    1.1340 H         1 HET    0.0893
     40 H201        1.7220    9.9620    1.2770 H         1 HET    0.0535
     41 H202        2.3630   10.3520   -0.3760 H         1 HET    0.0535
     42 H203        3.2870    9.2580    0.7240 H         1 HET    0.0535
     43 H211       -5.3840    7.7200   -1.1160 H         1 HET    0.0536
     44 H212       -4.3610    8.4450    0.1830 H         1 HET    0.0536
     45 H213       -4.1340    6.7240   -0.2740 H         1 HET    0.0536
     46 H221       -3.5900   10.3320   -2.5920 H         1 HET    0.0536
     47 H222       -3.6670   11.8950   -1.6870 H         1 HET    0.0536
     48 H223       -4.3380   10.3870   -0.9490 H         1 HET    0.0536
@<TRIPOS>BOND
     1    1   20 1
     2    1   25 1
     3    2   21 1
     4    2   25 1
     5    3   17 1
     6    3   26 1
     7    4   18 1
     8    4   27 1
     9    5   23 1
    10    5   28 1
    11    6    7 ar
    12    6   13 ar
    13    6   22 1
    14    7    8 ar
    15    7   10 ar
    16    8    9 ar
    17    8   14 ar
    18    9   11 ar
    19    9   17 ar
    20   10   12 ar
    21   10   16 ar
    22   11   13 ar
    23   11   18 ar
    24   12   15 ar
    25   12   19 ar
    26   13   29 1
    27   14   15 ar
    28   14   30 1
    29   15   31 1
    30   16   20 ar
    31   16   32 1
    32   17   24 ar
    33   18   23 ar
    34   19   21 ar
    35   19   33 1
    36   20   21 ar
    37   22   34 1
    38   22   35 1
    39   22   36 1
    40   23   24 ar
    41   24   37 1
    42   25   38 1
    43   25   39 1
    44   26   40 1
    45   26   41 1
    46   26   42 1
    47   27   43 1
    48   27   44 1
    49   27   45 1
    50   28   46 1
    51   28   47 1
    52   28   48 1
@<TRIPOS>SUBSTRUCTURE
     1 HET     1 RESIDUE           4 A     HET     0 ROOT
