443720
  -OEChem-08292522323D

 48 52  0     0  0  0  0  0  0999 V2000
    5.4402    1.7972    0.0152 O   0  0  0  0  0  0  0  0  0  0  0  0
    6.2686   -0.4636    0.0568 O   0  0  0  0  0  0  0  0  0  0  0  0
   -2.3136   -2.9462    0.1001 O   0  0  0  0  0  0  0  0  0  0  0  0
   -3.8564    2.3288    0.0011 O   0  0  0  0  0  0  0  0  0  0  0  0
   -5.6939    0.2990    0.0401 O   0  0  0  0  0  0  0  0  0  0  0  0
    0.2001    1.5053    0.0157 N   0  3  0  0  0  0  0  0  0  0  0  0
    0.7316    0.2649    0.0400 C   0  0  0  0  0  0  0  0  0  0  0  0
   -0.1683   -0.8387    0.0607 C   0  0  0  0  0  0  0  0  0  0  0  0
   -1.5838   -0.5961    0.0557 C   0  0  0  0  0  0  0  0  0  0  0  0
    2.1507    0.0847    0.0444 C   0  0  0  0  0  0  0  0  0  0  0  0
   -2.0418    0.7374    0.0300 C   0  0  0  0  0  0  0  0  0  0  0  0
    2.6669   -1.2441    0.0697 C   0  0  0  0  0  0  0  0  0  0  0  0
   -1.1100    1.7618    0.0102 C   0  0  0  0  0  0  0  0  0  0  0  0
    0.4032   -2.1265    0.0854 C   0  0  0  0  0  0  0  0  0  0  0  0
    1.7845   -2.3243    0.0899 C   0  0  0  0  0  0  0  0  0  0  0  0
    3.0843    1.1526    0.0252 C   0  0  0  0  0  0  0  0  0  0  0  0
   -2.5787   -1.6072    0.0752 C   0  0  0  0  0  0  0  0  0  0  0  0
   -3.4151    1.0343    0.0248 C   0  0  0  0  0  0  0  0  0  0  0  0
    4.0530   -1.4850    0.0750 C   0  0  0  0  0  0  0  0  0  0  0  0
    4.4378    0.8766    0.0314 C   0  0  0  0  0  0  0  0  0  0  0  0
    4.9096   -0.4078    0.0552 C   0  0  0  0  0  0  0  0  0  0  0  0
    0.9190    2.7784   -0.0161 C   0  0  0  0  0  0  0  0  0  0  0  0
   -4.3623    0.0158    0.0449 C   0  0  0  0  0  0  0  0  0  0  0  0
   -3.9439   -1.3062    0.0700 C   0  0  0  0  0  0  0  0  0  0  0  0
    6.5997    0.9397    0.0301 C   0  0  0  0  0  0  0  0  0  0  0  0
   -2.1891   -3.6028   -1.1583 C   0  0  0  0  0  0  0  0  0  0  0  0
   -4.0641    2.9135   -1.2803 C   0  0  0  0  0  0  0  0  0  0  0  0
   -6.3282    0.4585    1.3079 C   0  0  0  0  0  0  0  0  0  0  0  0
   -1.4376    2.7964    0.0009 H   0  0  0  0  0  0  0  0  0  0  0  0
   -0.1597   -3.0419    0.1646 H   0  0  0  0  0  0  0  0  0  0  0  0
    2.1607   -3.3456    0.1224 H   0  0  0  0  0  0  0  0  0  0  0  0
    2.9421    2.2096    0.0096 H   0  0  0  0  0  0  0  0  0  0  0  0
    4.4511   -2.4957    0.0941 H   0  0  0  0  0  0  0  0  0  0  0  0
    0.2537    3.6503   -0.0449 H   0  0  0  0  0  0  0  0  0  0  0  0
    1.4567    2.9009    0.9285 H   0  0  0  0  0  0  0  0  0  0  0  0
    1.4656    2.8491   -0.9609 H   0  0  0  0  0  0  0  0  0  0  0  0
   -4.6813   -2.1056    0.0866 H   0  0  0  0  0  0  0  0  0  0  0  0
    7.2000    1.1760    0.9161 H   0  0  0  0  0  0  0  0  0  0  0  0
    7.1982    1.1426   -0.8655 H   0  0  0  0  0  0  0  0  0  0  0  0
   -1.5939   -3.0193   -1.8686 H   0  0  0  0  0  0  0  0  0  0  0  0
   -3.1836   -3.7815   -1.5794 H   0  0  0  0  0  0  0  0  0  0  0  0
   -1.7042   -4.5701   -0.9994 H   0  0  0  0  0  0  0  0  0  0  0  0
   -4.3160    3.9681   -1.1385 H   0  0  0  0  0  0  0  0  0  0  0  0
   -4.8981    2.4232   -1.7922 H   0  0  0  0  0  0  0  0  0  0  0  0
   -3.1619    2.8514   -1.8971 H   0  0  0  0  0  0  0  0  0  0  0  0
   -6.2632   -0.4676    1.8878 H   0  0  0  0  0  0  0  0  0  0  0  0
   -7.3828    0.6908    1.1364 H   0  0  0  0  0  0  0  0  0  0  0  0
   -5.8742    1.2838    1.8655 H   0  0  0  0  0  0  0  0  0  0  0  0
  1 20  1  0  0  0  0
  1 25  1  0  0  0  0
  2 21  1  0  0  0  0
  2 25  1  0  0  0  0
  3 17  1  0  0  0  0
  3 26  1  0  0  0  0
  4 18  1  0  0  0  0
  4 27  1  0  0  0  0
  5 23  1  0  0  0  0
  5 28  1  0  0  0  0
  6  7  2  0  0  0  0
  6 13  1  0  0  0  0
  6 22  1  0  0  0  0
  7  8  1  0  0  0  0
  7 10  1  0  0  0  0
  8  9  2  0  0  0  0
  8 14  1  0  0  0  0
  9 11  1  0  0  0  0
  9 17  1  0  0  0  0
 10 12  1  0  0  0  0
 10 16  2  0  0  0  0
 11 13  2  0  0  0  0
 11 18  1  0  0  0  0
 12 15  1  0  0  0  0
 12 19  2  0  0  0  0
 13 29  1  0  0  0  0
 14 15  2  0  0  0  0
 14 30  1  0  0  0  0
 15 31  1  0  0  0  0
 16 20  1  0  0  0  0
 16 32  1  0  0  0  0
 17 24  2  0  0  0  0
 18 23  2  0  0  0  0
 19 21  1  0  0  0  0
 19 33  1  0  0  0  0
 20 21  2  0  0  0  0
 22 34  1  0  0  0  0
 22 35  1  0  0  0  0
 22 36  1  0  0  0  0
 23 24  1  0  0  0  0
 24 37  1  0  0  0  0
 25 38  1  0  0  0  0
 25 39  1  0  0  0  0
 26 40  1  0  0  0  0
 26 41  1  0  0  0  0
 26 42  1  0  0  0  0
 27 43  1  0  0  0  0
 27 44  1  0  0  0  0
 27 45  1  0  0  0  0
 28 46  1  0  0  0  0
 28 47  1  0  0  0  0
 28 48  1  0  0  0  0
M  CHG  1   6   1
M  END
> <PUBCHEM_COMPOUND_CID>
443720

> <PUBCHEM_CONFORMER_RMSD>
0.8

> <PUBCHEM_CONFORMER_DIVERSEORDER>
1
2

> <PUBCHEM_MMFF94_PARTIAL_CHARGES>
29
1 -0.36
13 0.21
14 -0.15
15 -0.15
16 -0.15
17 0.08
18 0.08
19 -0.15
2 -0.36
20 0.08
21 0.08
22 0.49
23 0.08
24 -0.15
25 0.56
26 0.28
27 0.28
28 0.28
29 0.15
3 -0.36
30 0.15
31 0.15
32 0.15
33 0.15
37 0.15
4 -0.36
5 -0.36
6 -0.21
7 0.36

> <PUBCHEM_EFFECTIVE_ROTOR_COUNT>
3.6

> <PUBCHEM_PHARMACOPHORE_FEATURES>
10
1 1 acceptor
1 2 acceptor
1 3 acceptor
1 4 acceptor
1 5 acceptor
5 1 2 20 21 25 rings
6 10 12 16 19 20 21 rings
6 6 7 8 9 11 13 rings
6 7 8 10 12 14 15 rings
6 9 11 17 18 23 24 rings

> <PUBCHEM_HEAVY_ATOM_COUNT>
28

> <PUBCHEM_ATOM_DEF_STEREO_COUNT>
0

> <PUBCHEM_ATOM_UDEF_STEREO_COUNT>
0

> <PUBCHEM_BOND_DEF_STEREO_COUNT>
0

> <PUBCHEM_BOND_UDEF_STEREO_COUNT>
0

> <PUBCHEM_ISOTOPIC_ATOM_COUNT>
0

> <PUBCHEM_COMPONENT_COUNT>
1

> <PUBCHEM_CACTVS_TAUTO_COUNT>
1

> <PUBCHEM_CONFORMER_ID>
0006C54800000001

> <PUBCHEM_MMFF94_ENERGY>
162.6816

> <PUBCHEM_FEATURE_SELFOVERLAP>
50.982

> <PUBCHEM_SHAPE_FINGERPRINT>
10 15 18187086174054096992
10290309 65 18339080384781713399
10411042 1 17834113430818593207
10616163 171 18411701027593986798
10675989 125 17327730704956870045
10906281 52 18200329770104024103
10967382 1 18410855430216624891
1100329 8 18340208608328673025
11112241 14 16412923119289780560
11578080 2 16807554098680594607
12236239 1 17917994975173703883
12788726 201 17345758473361220409
12838862 33 18338498799154624449
13140716 1 18194126441680422561
13402501 40 18410011031151242256
14765038 42 18201174169433261961
14790565 3 18268151963484052041
15042514 8 18264774436348193059
15131766 46 15649332080296911126
15196674 1 18409729534931550346
1601671 61 18412543219457135824
1813 80 17022627450660139716
18608769 82 18335987562379598891
19141452 34 18341896328696895047
19319366 153 18040435481757498986
19591789 44 18266176136994073891
20511986 3 18041827455156541664
20642791 178 18116725207904008876
21033648 29 18270385123493256921
21133410 171 17118824973164569446
21236236 1 18340767151545584095
21267235 1 18409456868484578826
21279426 13 18266458702955554316
21421861 104 17969493819597747890
23227448 37 18413106181958128494
23402539 116 18341326799338938054
23559900 14 18270955868616998560
3004659 81 18333733499360410024
3178227 256 18336562568453608081
335352 9 18411419540095838709
338550 245 18261959651767433884
34797466 226 17917720110531749468
34934 24 18410571794723989658
350125 39 18410857651363745393
3545911 37 18411702080145356160
3680242 22 18262797355247665306
4073 2 18041565845021130810
4093350 32 16916798326920973543
4214541 1 18410011031045779656
5104073 3 18188773821075462217
59755656 215 18341340985610694406

> <PUBCHEM_SHAPE_MULTIPOLES>
541.9
13.47
3.28
0.78
7.11
0.9
0.05
-4.19
-1.46
-2.11
0.88
-0.78
-0.02
0.1

> <PUBCHEM_SHAPE_SELFOVERLAP>
1232.73

> <PUBCHEM_SHAPE_VOLUME>
284.8

> <PUBCHEM_COORDINATE_TYPE>
2
5
10

$$$$
