176150
  -OEChem-08292522323D

 38 40  0     1  0  0  0  0  0999 V2000
    1.2512    1.4656   -2.1606 O   0  0  0  0  0  0  0  0  0  0  0  0
   -3.8475   -0.8559    0.7736 O   0  0  0  0  0  0  0  0  0  0  0  0
   -3.8342    1.3643    0.2250 O   0  0  0  0  0  0  0  0  0  0  0  0
    0.4931    0.1966   -0.2177 C   0  0  1  0  0  0  0  0  0  0  0  0
    1.3465   -0.1693    1.0345 C   0  0  1  0  0  0  0  0  0  0  0  0
   -0.0016   -1.1734   -0.7921 C   0  0  1  0  0  0  0  0  0  0  0  0
   -0.7890    1.0570    0.0060 C   0  0  1  0  0  0  0  0  0  0  0  0
    0.9837   -1.6131    1.3771 C   0  0  0  0  0  0  0  0  0  0  0  0
    0.7216   -2.2586    0.0217 C   0  0  0  0  0  0  0  0  0  0  0  0
    2.8203   -0.0290    0.5922 C   0  0  1  0  0  0  0  0  0  0  0  0
    1.4976    0.9736   -1.0652 C   0  0  0  0  0  0  0  0  0  0  0  0
    2.8239    1.1414   -0.3799 C   0  0  0  0  0  0  0  0  0  0  0  0
   -1.4718   -1.1592   -0.4490 C   0  0  0  0  0  0  0  0  0  0  0  0
   -1.8783    0.0348   -0.0151 C   0  0  0  0  0  0  0  0  0  0  0  0
    0.1719   -1.3872   -2.2941 C   0  0  0  0  0  0  0  0  0  0  0  0
   -0.7860    1.9358    1.2531 C   0  0  0  0  0  0  0  0  0  0  0  0
    3.7683    0.1936    1.7637 C   0  0  0  0  0  0  0  0  0  0  0  0
   -3.2697    0.2831    0.3267 C   0  0  0  0  0  0  0  0  0  0  0  0
    1.1673    0.4796    1.8954 H   0  0  0  0  0  0  0  0  0  0  0  0
   -0.9455    1.7191   -0.8567 H   0  0  0  0  0  0  0  0  0  0  0  0
    0.0732   -1.6351    1.9878 H   0  0  0  0  0  0  0  0  0  0  0  0
    1.7692   -2.1341    1.9325 H   0  0  0  0  0  0  0  0  0  0  0  0
    1.6708   -2.5343   -0.4526 H   0  0  0  0  0  0  0  0  0  0  0  0
    0.1356   -3.1786    0.1268 H   0  0  0  0  0  0  0  0  0  0  0  0
    3.1509   -0.9265    0.0545 H   0  0  0  0  0  0  0  0  0  0  0  0
    3.6467    1.0728   -1.0958 H   0  0  0  0  0  0  0  0  0  0  0  0
    2.8376    2.1102    0.1286 H   0  0  0  0  0  0  0  0  0  0  0  0
   -2.1006   -2.0300   -0.5825 H   0  0  0  0  0  0  0  0  0  0  0  0
   -0.2307   -2.3599   -2.6010 H   0  0  0  0  0  0  0  0  0  0  0  0
   -0.3500   -0.6192   -2.8762 H   0  0  0  0  0  0  0  0  0  0  0  0
    1.2291   -1.3683   -2.5804 H   0  0  0  0  0  0  0  0  0  0  0  0
   -0.8508    1.3465    2.1740 H   0  0  0  0  0  0  0  0  0  0  0  0
    0.1157    2.5556    1.2927 H   0  0  0  0  0  0  0  0  0  0  0  0
   -1.6445    2.6165    1.2482 H   0  0  0  0  0  0  0  0  0  0  0  0
    3.7490   -0.6600    2.4486 H   0  0  0  0  0  0  0  0  0  0  0  0
    4.7965    0.3178    1.4081 H   0  0  0  0  0  0  0  0  0  0  0  0
    3.4990    1.0898    2.3328 H   0  0  0  0  0  0  0  0  0  0  0  0
   -4.7893   -0.7208    1.0131 H   0  0  0  0  0  0  0  0  0  0  0  0
  1 11  2  0  0  0  0
  2 18  1  0  0  0  0
  2 38  1  0  0  0  0
  3 18  2  0  0  0  0
  4  5  1  0  0  0  0
  4  6  1  0  0  0  0
  4  7  1  0  0  0  0
  4 11  1  0  0  0  0
  5  8  1  0  0  0  0
  5 10  1  0  0  0  0
  5 19  1  0  0  0  0
  6  9  1  0  0  0  0
  6 13  1  0  0  0  0
  6 15  1  0  0  0  0
  7 14  1  0  0  0  0
  7 16  1  0  0  0  0
  7 20  1  0  0  0  0
  8  9  1  0  0  0  0
  8 21  1  0  0  0  0
  8 22  1  0  0  0  0
  9 23  1  0  0  0  0
  9 24  1  0  0  0  0
 10 12  1  0  0  0  0
 10 17  1  0  0  0  0
 10 25  1  0  0  0  0
 11 12  1  0  0  0  0
 12 26  1  0  0  0  0
 12 27  1  0  0  0  0
 13 14  2  0  0  0  0
 13 28  1  0  0  0  0
 14 18  1  0  0  0  0
 15 29  1  0  0  0  0
 15 30  1  0  0  0  0
 15 31  1  0  0  0  0
 16 32  1  0  0  0  0
 16 33  1  0  0  0  0
 16 34  1  0  0  0  0
 17 35  1  0  0  0  0
 17 36  1  0  0  0  0
 17 37  1  0  0  0  0
M  END
> <PUBCHEM_COMPOUND_CID>
176150

> <PUBCHEM_CONFORMER_RMSD>
0.6

> <PUBCHEM_CONFORMER_DIVERSEORDER>
1
4
2
3

> <PUBCHEM_MMFF94_PARTIAL_CHARGES>
13
1 -0.57
11 0.45
12 0.06
13 -0.29
14 -0.12
18 0.71
2 -0.65
28 0.15
3 -0.57
38 0.5
4 0.06
6 0.14
7 0.14

> <PUBCHEM_EFFECTIVE_ROTOR_COUNT>
2

> <PUBCHEM_PHARMACOPHORE_FEATURES>
7
1 1 acceptor
1 2 acceptor
1 3 acceptor
3 2 3 18 anion
5 4 5 10 11 12 rings
5 4 5 6 8 9 rings
5 4 6 7 13 14 rings

> <PUBCHEM_HEAVY_ATOM_COUNT>
18

> <PUBCHEM_ATOM_DEF_STEREO_COUNT>
4

> <PUBCHEM_ATOM_UDEF_STEREO_COUNT>
1

> <PUBCHEM_BOND_DEF_STEREO_COUNT>
0

> <PUBCHEM_BOND_UDEF_STEREO_COUNT>
0

> <PUBCHEM_ISOTOPIC_ATOM_COUNT>
0

> <PUBCHEM_COMPONENT_COUNT>
1

> <PUBCHEM_CACTVS_TAUTO_COUNT>
2

> <PUBCHEM_CONFORMER_ID>
0002B01600000001

> <PUBCHEM_MMFF94_ENERGY>
58.0822

> <PUBCHEM_FEATURE_SELFOVERLAP>
36.447

> <PUBCHEM_SHAPE_FINGERPRINT>
10863032 1 17096662086837421560
10948715 1 18264215866617517076
11132069 177 18130782378139132369
12119455 92 15769484400767712376
12138202 97 16128082481440611654
12382932 28 18342739590007128379
12423570 1 16175022569992585702
13027679 85 13716747159638377436
13140716 1 18057883748269690441
13172582 1 18272366516170217761
13538477 17 18191583262173364822
13571099 52 16845569850739359044
14787075 74 18194113251271380378
14817 1 12095599259872085958
15375462 478 18261664905025150320
15557651 10 15984522452168315738
15775835 57 18131624595350611778
15881359 60 17470679426863437822
15906896 17 18124595537789765430
16945 1 18337378388184058326
17844478 74 15502639512838529478
18981168 100 16341747062835912441
19010151 120 17749388148246115088
20473742 2 16733261365059746148
20645476 183 17971487427008945220
20820808 20 13686296894040449114
23402539 116 17274526690070923472
23419403 2 16467492607114648625
23493267 7 18338536174086342571
2748010 2 17828185606881019702
276578 36 18273216382697443258
296302 2 16732989716862694033
3286 77 16370717158233865568
7364860 26 17558554607974009878
77492 1 18262230135722120372
81228 2 17055804277720498791

> <PUBCHEM_SHAPE_MULTIPOLES>
352.82
5.01
1.96
1.71
2.23
0.38
-0.6
-1.8
1.92
0.28
-0.08
-1.08
0.18
-0.24

> <PUBCHEM_SHAPE_SELFOVERLAP>
768.712

> <PUBCHEM_SHAPE_VOLUME>
197.4

> <PUBCHEM_COORDINATE_TYPE>
2
5
10

$$$$
