@<TRIPOS>MOLECULE
suberogorgin.pdb
37 39 1 0 0
SMALL
AMBER ff14SB


@<TRIPOS>ATOM
      1 O1         -0.0140    0.0640   -0.0310 O.2       1 HET   -0.2990
      2 O2          6.3260    0.0640   -0.0310 O.co2     1 HET   -0.5452
      3 O3          5.0840    1.9190   -0.0310 O.co2     1 HET   -0.5452
      4 C1          1.8870   -0.8420   -1.2370 C.3       1 HET    0.0475
      5 C2          1.9250   -1.4850   -2.6490 C.3       1 HET   -0.0244
      6 C3          2.4560   -1.9390   -0.2480 C.3       1 HET   -0.0006
      7 C4          2.8010    0.4070   -1.0140 C.3       1 HET   -0.0038
      8 C5          2.7740   -2.7590   -2.5260 C.3       1 HET   -0.0483
      9 C6          2.5910   -3.2340   -1.0780 C.3       1 HET   -0.0430
     10 C7          0.4560   -1.8010   -3.0410 C.3       1 HET   -0.0335
     11 C8          0.4430   -0.4810   -1.0010 C.2       1 HET    0.1406
     12 C9         -0.4190   -0.8700   -2.1870 C.3       1 HET    0.0096
     13 C10         3.8120   -1.3960    0.1340 C.2       1 HET   -0.0722
     14 C11         4.0080   -0.1490   -0.3040 C.2       1 HET   -0.0248
     15 C12         1.5970   -2.1530    0.9940 C.3       1 HET   -0.0551
     16 C13         3.1650    1.1950   -2.2650 C.3       1 HET   -0.0573
     17 C14         0.2180   -1.6020   -4.5360 C.3       1 HET   -0.0618
     18 C15         5.2660    0.6960   -0.0990 C.2       1 HET    0.0674
     19 H2          2.3700   -0.7970   -3.3950 H         1 HET    0.0316
     20 H4          2.2880    1.1030   -0.2950 H         1 HET    0.0361
     21 H51         3.8400   -2.5160   -2.7080 H         1 HET    0.0270
     22 H52         2.4940   -3.5250   -3.2590 H         1 HET    0.0270
     23 H61         1.6960   -3.8640   -0.9790 H         1 HET    0.0276
     24 H62         3.4440   -3.8380   -0.7340 H         1 HET    0.0276
     25 H7          0.2250   -2.8570   -2.7740 H         1 HET    0.0307
     26 H91        -1.3550   -1.3480   -1.8640 H         1 HET    0.0350
     27 H92        -0.7170    0.0400   -2.7360 H         1 HET    0.0350
     28 H10         4.5080   -1.9970    0.6850 H         1 HET    0.0586
     29 H121        2.0720   -2.8600    1.6800 H         1 HET    0.0240
     30 H122        1.4670   -1.2030    1.5360 H         1 HET    0.0240
     31 H123        0.6000   -2.5270    0.7510 H         1 HET    0.0240
     32 H131        3.7930    0.6140   -2.9470 H         1 HET    0.0237
     33 H132        2.2860    1.5570   -2.7970 H         1 HET    0.0237
     34 H133        3.7760    2.0690   -1.9610 H         1 HET    0.0237
     35 H141        0.8540   -2.2700   -5.1270 H         1 HET    0.0233
     36 H142       -0.8220   -1.8090   -4.8050 H         1 HET    0.0233
     37 H143        0.4430   -0.5750   -4.8470 H         1 HET    0.0233
@<TRIPOS>BOND
     1    1   11 2
     2    2   18 2
     3    3   18 2
     4    4    5 1
     5    4    6 1
     6    4    7 1
     7    4   11 1
     8    5    8 1
     9    5   10 1
    10    5   19 1
    11    6    9 1
    12    6   13 1
    13    6   15 1
    14    7   14 1
    15    7   16 1
    16    7   20 1
    17    8    9 1
    18    8   21 1
    19    8   22 1
    20    9   23 1
    21    9   24 1
    22   10   12 1
    23   10   17 1
    24   10   25 1
    25   11   12 1
    26   12   26 1
    27   12   27 1
    28   13   14 2
    29   13   28 1
    30   14   18 2
    31   15   29 1
    32   15   30 1
    33   15   31 1
    34   16   32 1
    35   16   33 1
    36   16   34 1
    37   17   35 1
    38   17   36 1
    39   17   37 1
@<TRIPOS>SUBSTRUCTURE
     1 HET     1 RESIDUE           4 A     HET     0 ROOT
