MODEL 1
REMARK VINA RESULT:    -8.519      0.000      0.000
REMARK INTER + INTRA:         -12.247
REMARK INTER:                 -11.507
REMARK INTRA:                  -0.740
REMARK UNBOUND:                -0.740
REMARK  6 active torsions:
REMARK  status: ('A' for Active; 'I' for Inactive)
REMARK    1  A    between atoms: O2_2  and  C16_20 
REMARK    2  A    between atoms: O3_3  and  C17_21 
REMARK    3  A    between atoms: N_4  and  C12_16 
REMARK    4  A    between atoms: C1_5  and  C2_6 
REMARK    5  A    between atoms: C2_6  and  C3_7 
REMARK    6  A    between atoms: C12_16  and  C15_19 
ROOT
HETATM    1  C2  HET A   1     -30.237  23.690 -11.993  1.00 -2.90     0.017 C 
ENDROOT
BRANCH   1   2
HETATM    2  C1  HET A   1     -29.050  22.978 -11.329  1.00 -0.95    -0.011 C 
HETATM    3  C5  HET A   1     -28.914  23.380  -9.851  1.00 -3.14     0.032 C 
HETATM    4  C7  HET A   1     -27.728  22.670  -9.208  1.00 -1.71     0.235 C 
HETATM    5  N   HET A   1     -26.447  23.038  -9.936  1.00 -1.14    -0.067 N 
HETATM    6  C6  HET A   1     -26.549  22.635 -11.399  1.00 -1.68     0.235 C 
HETATM    7  H   HET A   1     -26.322  24.082  -9.875  1.00  3.03     0.280 HD
HETATM    8  C4  HET A   1     -27.741  23.331 -12.056  1.00 -3.17     0.032 C 
BRANCH   5   9
HETATM    9  C12 HET A   1     -25.251  22.355  -9.286  1.00 -1.78     0.273 C 
BRANCH   9  10
HETATM   10  C15 HET A   1     -24.691  23.261  -8.232  1.00 -1.10    -0.033 A 
HETATM   11  C19 HET A   1     -24.428  24.599  -8.525  1.00 -1.37     0.009 A 
HETATM   12  C21 HET A   1     -23.907  25.434  -7.537  1.00 -1.27     0.001 A 
HETATM   13  C22 HET A   1     -23.650  24.927  -6.265  1.00 -1.00     0.000 A 
HETATM   14  C20 HET A   1     -23.924  23.591  -5.971  1.00 -1.23     0.001 A 
HETATM   15  C18 HET A   1     -24.449  22.754  -6.952  1.00 -1.59     0.009 A 
ENDBRANCH   9  10
ENDBRANCH   5   9
ENDBRANCH   1   2
BRANCH   1  16
HETATM   16  C3  HET A   1     -31.510  22.847 -11.964  1.00 -2.25     0.065 A 
HETATM   17  C8  HET A   1     -31.602  21.809 -13.112  1.00 -2.93     0.052 A 
HETATM   18  C10 HET A   1     -32.909  22.102 -13.790  1.00  0.68    -0.041 A 
HETATM   19  C13 HET A   1     -33.494  21.375 -14.821  1.00 -3.15     0.047 A 
HETATM   20  C11 HET A   1     -33.533  23.231 -13.256  1.00 -2.15     0.019 A 
HETATM   21  C16 HET A   1     -34.723  21.815 -15.313  1.00  2.20     0.102 A 
HETATM   22  C17 HET A   1     -35.352  22.982 -14.776  1.00  1.16     0.102 A 
HETATM   23  C14 HET A   1     -34.756  23.690 -13.744  1.00 -1.55     0.055 A 
HETATM   24  C9  HET A   1     -32.732  23.776 -12.157  1.00  4.84     0.164 A 
HETATM   25  O1  HET A   1     -32.930  24.747 -11.483  1.00 -4.36    -0.292 OA
BRANCH  21  26
HETATM   26  O2  HET A   1     -35.427  21.225 -16.304  1.00 -2.48    -0.353 OA
HETATM   27  C23 HET A   1     -34.989  19.940 -16.735  1.00 -2.19     0.210 C 
ENDBRANCH  21  26
BRANCH  22  28
HETATM   28  O3  HET A   1     -36.538  23.275 -15.370  1.00 -2.63    -0.353 OA
HETATM   29  C24 HET A   1     -37.694  23.223 -14.542  1.00 -2.14     0.210 C 
ENDBRANCH  22  28
ENDBRANCH   1  16
TORSDOF 6
ENDMDL
MODEL 2
REMARK VINA RESULT:    -8.448      1.849      3.140
REMARK INTER + INTRA:         -12.151
REMARK INTER:                 -11.523
REMARK INTRA:                  -0.628
REMARK UNBOUND:                -0.740
REMARK  6 active torsions:
REMARK  status: ('A' for Active; 'I' for Inactive)
REMARK    1  A    between atoms: O2_2  and  C16_20 
REMARK    2  A    between atoms: O3_3  and  C17_21 
REMARK    3  A    between atoms: N_4  and  C12_16 
REMARK    4  A    between atoms: C1_5  and  C2_6 
REMARK    5  A    between atoms: C2_6  and  C3_7 
REMARK    6  A    between atoms: C12_16  and  C15_19 
ROOT
HETATM    1  C2  HET A   1     -30.788  20.809 -13.672  1.00 -2.90     0.017 C 
ENDROOT
BRANCH   1   2
HETATM    2  C1  HET A   1     -29.350  21.318 -13.501  1.00 -0.95    -0.011 C 
HETATM    3  C5  HET A   1     -28.439  20.228 -12.911  1.00 -3.14     0.032 C 
HETATM    4  C7  HET A   1     -27.016  20.750 -12.741  1.00 -1.71     0.235 C 
HETATM    5  N   HET A   1     -27.013  21.950 -11.808  1.00 -1.14    -0.067 N 
HETATM    6  C6  HET A   1     -27.895  23.050 -12.378  1.00 -1.68     0.235 C 
HETATM    7  H   HET A   1     -27.402  21.645 -10.879  1.00  3.03     0.280 HD
HETATM    8  C4  HET A   1     -29.323  22.539 -12.565  1.00 -3.17     0.032 C 
BRANCH   5   9
HETATM    9  C12 HET A   1     -25.594  22.464 -11.610  1.00 -1.78     0.273 C 
BRANCH   9  10
HETATM   10  C15 HET A   1     -25.319  22.572 -10.141  1.00 -1.10    -0.033 A 
HETATM   11  C19 HET A   1     -24.826  23.763  -9.606  1.00 -1.37     0.009 A 
HETATM   12  C21 HET A   1     -24.574  23.854  -8.238  1.00 -1.27     0.001 A 
HETATM   13  C22 HET A   1     -24.811  22.756  -7.414  1.00 -1.00     0.000 A 
HETATM   14  C20 HET A   1     -25.314  21.569  -7.950  1.00 -1.23     0.001 A 
HETATM   15  C18 HET A   1     -25.574  21.475  -9.314  1.00 -1.59     0.009 A 
ENDBRANCH   9  10
ENDBRANCH   5   9
ENDBRANCH   1   2
BRANCH   1  16
HETATM   16  C3  HET A   1     -31.643  21.756 -14.512  1.00 -2.25     0.065 A 
HETATM   17  C8  HET A   1     -32.596  22.649 -13.676  1.00 -2.93     0.052 A 
HETATM   18  C10 HET A   1     -33.961  22.389 -14.244  1.00  0.68    -0.041 A 
HETATM   19  C13 HET A   1     -35.144  23.032 -13.896  1.00 -3.15     0.047 A 
HETATM   20  C11 HET A   1     -33.939  21.392 -15.221  1.00 -2.15     0.019 A 
HETATM   21  C16 HET A   1     -36.313  22.643 -14.550  1.00  2.20     0.102 A 
HETATM   22  C17 HET A   1     -36.291  21.609 -15.538  1.00  1.16     0.102 A 
HETATM   23  C14 HET A   1     -35.101  20.984 -15.875  1.00 -1.55     0.055 A 
HETATM   24  C9  HET A   1     -32.568  20.919 -15.427  1.00  4.84     0.164 A 
HETATM   25  O1  HET A   1     -32.163  20.059 -16.157  1.00 -4.36    -0.292 OA
BRANCH  21  26
HETATM   26  O2  HET A   1     -37.541  23.164 -14.336  1.00 -2.48    -0.353 OA
HETATM   27  C23 HET A   1     -38.188  22.820 -13.115  1.00 -2.19     0.210 C 
ENDBRANCH  21  26
BRANCH  22  28
HETATM   28  O3  HET A   1     -37.513  21.348 -16.071  1.00 -2.63    -0.353 OA
HETATM   29  C24 HET A   1     -38.019  20.031 -15.890  1.00 -2.14     0.210 C 
ENDBRANCH  22  28
ENDBRANCH   1  16
TORSDOF 6
ENDMDL
MODEL 3
REMARK VINA RESULT:    -8.374      4.639     10.874
REMARK INTER + INTRA:         -12.052
REMARK INTER:                 -11.197
REMARK INTRA:                  -0.855
REMARK UNBOUND:                -0.740
REMARK  6 active torsions:
REMARK  status: ('A' for Active; 'I' for Inactive)
REMARK    1  A    between atoms: O2_2  and  C16_20 
REMARK    2  A    between atoms: O3_3  and  C17_21 
REMARK    3  A    between atoms: N_4  and  C12_16 
REMARK    4  A    between atoms: C1_5  and  C2_6 
REMARK    5  A    between atoms: C2_6  and  C3_7 
REMARK    6  A    between atoms: C12_16  and  C15_19 
ROOT
HETATM    1  C2  HET A   1     -34.080  21.221 -17.411  1.00 -2.90     0.017 C 
ENDROOT
BRANCH   1   2
HETATM    2  C1  HET A   1     -34.347  19.968 -18.257  1.00 -0.95    -0.011 C 
HETATM    3  C5  HET A   1     -34.923  18.828 -17.401  1.00 -3.14     0.032 C 
HETATM    4  C7  HET A   1     -35.176  17.589 -18.254  1.00 -1.71     0.235 C 
HETATM    5  N   HET A   1     -33.875  17.120 -18.883  1.00 -1.14    -0.067 N 
HETATM    6  C6  HET A   1     -33.291  18.225 -19.750  1.00 -1.68     0.235 C 
HETATM    7  H   HET A   1     -33.197  16.896 -18.109  1.00  3.03     0.280 HD
HETATM    8  C4  HET A   1     -33.043  19.478 -18.911  1.00 -3.17     0.032 C 
BRANCH   5   9
HETATM    9  C12 HET A   1     -34.110  15.867 -19.716  1.00 -1.78     0.273 C 
BRANCH   9  10
HETATM   10  C15 HET A   1     -33.323  14.738 -19.125  1.00 -1.10    -0.033 A 
HETATM   11  C19 HET A   1     -33.856  13.983 -18.080  1.00 -1.37     0.009 A 
HETATM   12  C21 HET A   1     -33.116  12.934 -17.537  1.00 -1.27     0.001 A 
HETATM   13  C22 HET A   1     -31.848  12.647 -18.038  1.00 -1.00     0.000 A 
HETATM   14  C20 HET A   1     -31.321  13.397 -19.091  1.00 -1.23     0.001 A 
HETATM   15  C18 HET A   1     -32.058  14.441 -19.641  1.00 -1.59     0.009 A 
ENDBRANCH   9  10
ENDBRANCH   5   9
ENDBRANCH   1   2
BRANCH   1  16
HETATM   16  C3  HET A   1     -34.145  20.933 -15.912  1.00 -2.25     0.065 A 
HETATM   17  C8  HET A   1     -34.805  22.067 -15.085  1.00 -2.93     0.052 A 
HETATM   18  C10 HET A   1     -33.785  22.421 -14.040  1.00  0.68    -0.041 A 
HETATM   19  C13 HET A   1     -33.947  23.317 -12.990  1.00 -3.15     0.047 A 
HETATM   20  C11 HET A   1     -32.591  21.721 -14.218  1.00 -2.15     0.019 A 
HETATM   21  C16 HET A   1     -32.872  23.503 -12.121  1.00  2.20     0.102 A 
HETATM   22  C17 HET A   1     -31.643  22.798 -12.314  1.00  1.16     0.102 A 
HETATM   23  C14 HET A   1     -31.503  21.904 -13.364  1.00 -1.55     0.055 A 
HETATM   24  C9  HET A   1     -32.704  20.814 -15.362  1.00  4.84     0.164 A 
HETATM   25  O1  HET A   1     -31.882  20.078 -15.832  1.00 -4.36    -0.292 OA
BRANCH  21  26
HETATM   26  O2  HET A   1     -32.862  24.329 -11.052  1.00 -2.48    -0.353 OA
HETATM   27  C23 HET A   1     -32.936  25.727 -11.313  1.00 -2.19     0.210 C 
ENDBRANCH  21  26
BRANCH  22  28
HETATM   28  O3  HET A   1     -30.698  23.098 -11.385  1.00 -2.63    -0.353 OA
HETATM   29  C24 HET A   1     -29.516  23.731 -11.861  1.00 -2.14     0.210 C 
ENDBRANCH  22  28
ENDBRANCH   1  16
TORSDOF 6
ENDMDL
MODEL 4
REMARK VINA RESULT:    -8.353      5.215     10.226
REMARK INTER + INTRA:         -12.024
REMARK INTER:                 -10.846
REMARK INTRA:                  -1.178
REMARK UNBOUND:                -0.740
REMARK  6 active torsions:
REMARK  status: ('A' for Active; 'I' for Inactive)
REMARK    1  A    between atoms: O2_2  and  C16_20 
REMARK    2  A    between atoms: O3_3  and  C17_21 
REMARK    3  A    between atoms: N_4  and  C12_16 
REMARK    4  A    between atoms: C1_5  and  C2_6 
REMARK    5  A    between atoms: C2_6  and  C3_7 
REMARK    6  A    between atoms: C12_16  and  C15_19 
ROOT
HETATM    1  C2  HET A   1     -34.474  21.314 -17.050  1.00 -2.90     0.017 C 
ENDROOT
BRANCH   1   2
HETATM    2  C1  HET A   1     -34.276  22.767 -17.503  1.00 -0.95    -0.011 C 
HETATM    3  C5  HET A   1     -35.142  23.092 -18.732  1.00 -3.14     0.032 C 
HETATM    4  C7  HET A   1     -34.930  24.536 -19.173  1.00 -1.71     0.235 C 
HETATM    5  N   HET A   1     -33.469  24.758 -19.530  1.00 -1.14    -0.067 N 
HETATM    6  C6  HET A   1     -32.591  24.460 -18.325  1.00 -1.68     0.235 C 
HETATM    7  H   HET A   1     -33.217  24.099 -20.311  1.00  3.03     0.280 HD
HETATM    8  C4  HET A   1     -32.801  23.018 -17.863  1.00 -3.17     0.032 C 
BRANCH   5   9
HETATM    9  C12 HET A   1     -33.250  26.191 -19.998  1.00 -1.78     0.273 C 
BRANCH   9  10
HETATM   10  C15 HET A   1     -32.138  26.207 -21.002  1.00 -1.10    -0.033 A 
HETATM   11  C19 HET A   1     -31.941  25.115 -21.847  1.00 -1.37     0.009 A 
HETATM   12  C21 HET A   1     -30.904  25.139 -22.778  1.00 -1.27     0.001 A 
HETATM   13  C22 HET A   1     -30.070  26.252 -22.859  1.00 -1.00     0.000 A 
HETATM   14  C20 HET A   1     -30.276  27.348 -22.020  1.00 -1.23     0.001 A 
HETATM   15  C18 HET A   1     -31.313  27.332 -21.093  1.00 -1.59     0.009 A 
ENDBRANCH   9  10
ENDBRANCH   5   9
ENDBRANCH   1   2
BRANCH   1  16
HETATM   16  C3  HET A   1     -34.482  21.176 -15.529  1.00 -2.25     0.065 A 
HETATM   17  C8  HET A   1     -34.885  22.475 -14.784  1.00 -2.93     0.052 A 
HETATM   18  C10 HET A   1     -33.751  22.739 -13.835  1.00  0.68    -0.041 A 
HETATM   19  C13 HET A   1     -33.688  23.740 -12.872  1.00 -3.15     0.047 A 
HETATM   20  C11 HET A   1     -32.705  21.831 -14.005  1.00 -2.15     0.019 A 
HETATM   21  C16 HET A   1     -32.540  23.813 -12.083  1.00  2.20     0.102 A 
HETATM   22  C17 HET A   1     -31.461  22.893 -12.271  1.00  1.16     0.102 A 
HETATM   23  C14 HET A   1     -31.546  21.899 -13.234  1.00 -1.55     0.055 A 
HETATM   24  C9  HET A   1     -33.046  20.859 -15.047  1.00  4.84     0.164 A 
HETATM   25  O1  HET A   1     -32.393  19.954 -15.485  1.00 -4.36    -0.292 OA
BRANCH  21  26
HETATM   26  O2  HET A   1     -32.318  24.717 -11.104  1.00 -2.48    -0.353 OA
HETATM   27  C23 HET A   1     -32.719  26.060 -11.357  1.00 -2.19     0.210 C 
ENDBRANCH  21  26
BRANCH  22  28
HETATM   28  O3  HET A   1     -30.418  23.107 -11.428  1.00 -2.63    -0.353 OA
HETATM   29  C24 HET A   1     -29.186  23.494 -12.025  1.00 -2.14     0.210 C 
ENDBRANCH  22  28
ENDBRANCH   1  16
TORSDOF 6
ENDMDL
MODEL 5
REMARK VINA RESULT:    -8.216      4.963     12.597
REMARK INTER + INTRA:         -11.839
REMARK INTER:                 -11.077
REMARK INTRA:                  -0.762
REMARK UNBOUND:                -0.740
REMARK  6 active torsions:
REMARK  status: ('A' for Active; 'I' for Inactive)
REMARK    1  A    between atoms: O2_2  and  C16_20 
REMARK    2  A    between atoms: O3_3  and  C17_21 
REMARK    3  A    between atoms: N_4  and  C12_16 
REMARK    4  A    between atoms: C1_5  and  C2_6 
REMARK    5  A    between atoms: C2_6  and  C3_7 
REMARK    6  A    between atoms: C12_16  and  C15_19 
ROOT
HETATM    1  C2  HET A   1     -37.244  22.864 -12.909  1.00 -2.90     0.017 C 
ENDROOT
BRANCH   1   2
HETATM    2  C1  HET A   1     -38.085  22.685 -14.180  1.00 -0.95    -0.011 C 
HETATM    3  C5  HET A   1     -39.540  23.133 -13.955  1.00 -3.14     0.032 C 
HETATM    4  C7  HET A   1     -40.363  22.944 -15.224  1.00 -1.71     0.235 C 
HETATM    5  N   HET A   1     -40.359  21.480 -15.631  1.00 -1.14    -0.067 N 
HETATM    6  C6  HET A   1     -38.931  21.016 -15.876  1.00 -1.68     0.235 C 
HETATM    7  H   HET A   1     -40.772  20.918 -14.842  1.00  3.03     0.280 HD
HETATM    8  C4  HET A   1     -38.089  21.210 -14.616  1.00 -3.17     0.032 C 
BRANCH   5   9
HETATM    9  C12 HET A   1     -41.200  21.274 -16.883  1.00 -1.78     0.273 C 
BRANCH   9  10
HETATM   10  C15 HET A   1     -42.170  20.159 -16.637  1.00 -1.10    -0.033 A 
HETATM   11  C19 HET A   1     -42.720  19.459 -17.711  1.00 -1.37     0.009 A 
HETATM   12  C21 HET A   1     -43.622  18.423 -17.471  1.00 -1.27     0.001 A 
HETATM   13  C22 HET A   1     -43.970  18.094 -16.163  1.00 -1.00     0.000 A 
HETATM   14  C20 HET A   1     -43.409  18.788 -15.090  1.00 -1.23     0.001 A 
HETATM   15  C18 HET A   1     -42.504  19.820 -15.323  1.00 -1.59     0.009 A 
ENDBRANCH   9  10
ENDBRANCH   5   9
ENDBRANCH   1   2
BRANCH   1  16
HETATM   16  C3  HET A   1     -35.964  23.656 -13.166  1.00 -2.25     0.065 A 
HETATM   17  C8  HET A   1     -34.929  22.905 -14.045  1.00 -2.93     0.052 A 
HETATM   18  C10 HET A   1     -33.668  22.897 -13.229  1.00  0.68    -0.041 A 
HETATM   19  C13 HET A   1     -32.422  22.428 -13.627  1.00 -3.15     0.047 A 
HETATM   20  C11 HET A   1     -33.864  23.447 -11.960  1.00 -2.15     0.019 A 
HETATM   21  C16 HET A   1     -31.371  22.515 -12.715  1.00  2.20     0.102 A 
HETATM   22  C17 HET A   1     -31.577  23.061 -11.409  1.00  1.16     0.102 A 
HETATM   23  C14 HET A   1     -32.826  23.530 -11.033  1.00 -1.55     0.055 A 
HETATM   24  C9  HET A   1     -35.248  23.904 -11.817  1.00  4.84     0.164 A 
HETATM   25  O1  HET A   1     -35.790  24.399 -10.869  1.00 -4.36    -0.292 OA
BRANCH  21  26
HETATM   26  O2  HET A   1     -30.101  22.111 -12.941  1.00 -2.48    -0.353 OA
HETATM   27  C23 HET A   1     -29.908  21.097 -13.922  1.00 -2.19     0.210 C 
ENDBRANCH  21  26
BRANCH  22  28
HETATM   28  O3  HET A   1     -30.454  23.067 -10.645  1.00 -2.63    -0.353 OA
HETATM   29  C24 HET A   1     -30.472  23.904  -9.494  1.00 -2.14     0.210 C 
ENDBRANCH  22  28
ENDBRANCH   1  16
TORSDOF 6
ENDMDL
MODEL 6
REMARK VINA RESULT:    -8.212      5.280     10.730
REMARK INTER + INTRA:         -11.832
REMARK INTER:                 -10.964
REMARK INTRA:                  -0.868
REMARK UNBOUND:                -0.740
REMARK  6 active torsions:
REMARK  status: ('A' for Active; 'I' for Inactive)
REMARK    1  A    between atoms: O2_2  and  C16_20 
REMARK    2  A    between atoms: O3_3  and  C17_21 
REMARK    3  A    between atoms: N_4  and  C12_16 
REMARK    4  A    between atoms: C1_5  and  C2_6 
REMARK    5  A    between atoms: C2_6  and  C3_7 
REMARK    6  A    between atoms: C12_16  and  C15_19 
ROOT
HETATM    1  C2  HET A   1     -33.859  20.399 -17.845  1.00 -2.90     0.017 C 
ENDROOT
BRANCH   1   2
HETATM    2  C1  HET A   1     -34.000  19.058 -18.579  1.00 -0.95    -0.011 C 
HETATM    3  C5  HET A   1     -34.190  17.897 -17.588  1.00 -3.14     0.032 C 
HETATM    4  C7  HET A   1     -34.322  16.572 -18.332  1.00 -1.71     0.235 C 
HETATM    5  N   HET A   1     -33.071  16.314 -19.155  1.00 -1.14    -0.067 N 
HETATM    6  C6  HET A   1     -32.868  17.442 -20.156  1.00 -1.68     0.235 C 
HETATM    7  H   HET A   1     -32.247  16.284 -18.501  1.00  3.03     0.280 HD
HETATM    8  C4  HET A   1     -32.746  18.779 -19.426  1.00 -3.17     0.032 C 
BRANCH   5   9
HETATM    9  C12 HET A   1     -33.180  14.980 -19.882  1.00 -1.78     0.273 C 
BRANCH   9  10
HETATM   10  C15 HET A   1     -32.303  13.980 -19.191  1.00 -1.10    -0.033 A 
HETATM   11  C19 HET A   1     -30.956  13.871 -19.538  1.00 -1.37     0.009 A 
HETATM   12  C21 HET A   1     -30.149  12.938 -18.889  1.00 -1.27     0.001 A 
HETATM   13  C22 HET A   1     -30.692  12.118 -17.902  1.00 -1.00     0.000 A 
HETATM   14  C20 HET A   1     -32.037  12.237 -17.550  1.00 -1.23     0.001 A 
HETATM   15  C18 HET A   1     -32.846  13.171 -18.190  1.00 -1.59     0.009 A 
ENDBRANCH   9  10
ENDBRANCH   5   9
ENDBRANCH   1   2
BRANCH   1  16
HETATM   16  C3  HET A   1     -34.158  20.277 -16.352  1.00 -2.25     0.065 A 
HETATM   17  C8  HET A   1     -35.282  21.224 -15.859  1.00 -2.93     0.052 A 
HETATM   18  C10 HET A   1     -34.662  22.003 -14.735  1.00  0.68    -0.041 A 
HETATM   19  C13 HET A   1     -35.301  22.913 -13.900  1.00 -3.15     0.047 A 
HETATM   20  C11 HET A   1     -33.305  21.709 -14.582  1.00 -2.15     0.019 A 
HETATM   21  C16 HET A   1     -34.541  23.531 -12.907  1.00  2.20     0.102 A 
HETATM   22  C17 HET A   1     -33.147  23.242 -12.764  1.00  1.16     0.102 A 
HETATM   23  C14 HET A   1     -32.530  22.328 -13.603  1.00 -1.55     0.055 A 
HETATM   24  C9  HET A   1     -32.899  20.691 -15.553  1.00  4.84     0.164 A 
HETATM   25  O1  HET A   1     -31.816  20.211 -15.742  1.00 -4.36    -0.292 OA
BRANCH  21  26
HETATM   26  O2  HET A   1     -35.004  24.432 -12.013  1.00 -2.48    -0.353 OA
HETATM   27  C23 HET A   1     -36.165  24.072 -11.272  1.00 -2.19     0.210 C 
ENDBRANCH  21  26
BRANCH  22  28
HETATM   28  O3  HET A   1     -32.555  23.933 -11.755  1.00 -2.63    -0.353 OA
HETATM   29  C24 HET A   1     -31.693  23.193 -10.898  1.00 -2.14     0.210 C 
ENDBRANCH  22  28
ENDBRANCH   1  16
TORSDOF 6
ENDMDL
MODEL 7
REMARK VINA RESULT:    -8.037     15.331     17.737
REMARK INTER + INTRA:         -11.596
REMARK INTER:                 -10.796
REMARK INTRA:                  -0.800
REMARK UNBOUND:                -0.740
REMARK  6 active torsions:
REMARK  status: ('A' for Active; 'I' for Inactive)
REMARK    1  A    between atoms: O2_2  and  C16_20 
REMARK    2  A    between atoms: O3_3  and  C17_21 
REMARK    3  A    between atoms: N_4  and  C12_16 
REMARK    4  A    between atoms: C1_5  and  C2_6 
REMARK    5  A    between atoms: C2_6  and  C3_7 
REMARK    6  A    between atoms: C12_16  and  C15_19 
ROOT
HETATM    1  C2  HET A   1     -45.451  28.095  -2.403  1.00 -2.90     0.017 C 
ENDROOT
BRANCH   1   2
HETATM    2  C1  HET A   1     -45.313  29.405  -1.616  1.00 -0.95    -0.011 C 
HETATM    3  C5  HET A   1     -44.194  30.288  -2.195  1.00 -3.14     0.032 C 
HETATM    4  C7  HET A   1     -44.064  31.582  -1.399  1.00 -1.71     0.235 C 
HETATM    5  N   HET A   1     -43.740  31.268   0.052  1.00 -1.14    -0.067 N 
HETATM    6  C6  HET A   1     -44.841  30.408   0.653  1.00 -1.68     0.235 C 
HETATM    7  H   HET A   1     -42.834  30.733   0.078  1.00  3.03     0.280 HD
HETATM    8  C4  HET A   1     -44.992  29.111  -0.140  1.00 -3.17     0.032 C 
BRANCH   5   9
HETATM    9  C12 HET A   1     -43.582  32.554   0.851  1.00 -1.78     0.273 C 
BRANCH   9  10
HETATM   10  C15 HET A   1     -42.171  32.647   1.346  1.00 -1.10    -0.033 A 
HETATM   11  C19 HET A   1     -41.639  33.881   1.719  1.00 -1.37     0.009 A 
HETATM   12  C21 HET A   1     -40.325  33.957   2.178  1.00 -1.27     0.001 A 
HETATM   13  C22 HET A   1     -39.550  32.801   2.260  1.00 -1.00     0.000 A 
HETATM   14  C20 HET A   1     -40.089  31.566   1.897  1.00 -1.23     0.001 A 
HETATM   15  C18 HET A   1     -41.402  31.484   1.443  1.00 -1.59     0.009 A 
ENDBRANCH   9  10
ENDBRANCH   5   9
ENDBRANCH   1   2
BRANCH   1  16
HETATM   16  C3  HET A   1     -44.172  27.731  -3.155  1.00 -2.25     0.065 A 
HETATM   17  C8  HET A   1     -44.423  27.113  -4.555  1.00 -2.93     0.052 A 
HETATM   18  C10 HET A   1     -43.689  25.803  -4.532  1.00  0.68    -0.041 A 
HETATM   19  C13 HET A   1     -43.527  24.921  -5.595  1.00 -3.15     0.047 A 
HETATM   20  C11 HET A   1     -43.138  25.535  -3.278  1.00 -2.15     0.019 A 
HETATM   21  C16 HET A   1     -42.802  23.752  -5.366  1.00  2.20     0.102 A 
HETATM   22  C17 HET A   1     -42.254  23.470  -4.075  1.00  1.16     0.102 A 
HETATM   23  C14 HET A   1     -42.422  24.365  -3.030  1.00 -1.55     0.055 A 
HETATM   24  C9  HET A   1     -43.415  26.642  -2.359  1.00  4.84     0.164 A 
HETATM   25  O1  HET A   1     -43.129  26.757  -1.200  1.00 -4.36    -0.292 OA
BRANCH  21  26
HETATM   26  O2  HET A   1     -42.548  22.794  -6.285  1.00 -2.48    -0.353 OA
HETATM   27  C23 HET A   1     -43.349  22.797  -7.462  1.00 -2.19     0.210 C 
ENDBRANCH  21  26
BRANCH  22  28
HETATM   28  O3  HET A   1     -41.584  22.290  -4.021  1.00 -2.63    -0.353 OA
HETATM   29  C24 HET A   1     -40.288  22.320  -3.435  1.00 -2.14     0.210 C 
ENDBRANCH  22  28
ENDBRANCH   1  16
TORSDOF 6
ENDMDL
MODEL 8
REMARK VINA RESULT:    -7.805      5.406      8.666
REMARK INTER + INTRA:         -11.283
REMARK INTER:                 -10.395
REMARK INTRA:                  -0.887
REMARK UNBOUND:                -0.740
REMARK  6 active torsions:
REMARK  status: ('A' for Active; 'I' for Inactive)
REMARK    1  A    between atoms: O2_2  and  C16_20 
REMARK    2  A    between atoms: O3_3  and  C17_21 
REMARK    3  A    between atoms: N_4  and  C12_16 
REMARK    4  A    between atoms: C1_5  and  C2_6 
REMARK    5  A    between atoms: C2_6  and  C3_7 
REMARK    6  A    between atoms: C12_16  and  C15_19 
ROOT
HETATM    1  C2  HET A   1     -32.736  21.141 -18.832  1.00 -2.90     0.017 C 
ENDROOT
BRANCH   1   2
HETATM    2  C1  HET A   1     -33.418  21.453 -17.493  1.00 -0.95    -0.011 C 
HETATM    3  C5  HET A   1     -33.483  22.968 -17.239  1.00 -3.14     0.032 C 
HETATM    4  C7  HET A   1     -34.156  23.261 -15.903  1.00 -1.71     0.235 C 
HETATM    5  N   HET A   1     -33.374  22.609 -14.775  1.00 -1.14    -0.067 N 
HETATM    6  C6  HET A   1     -33.309  21.105 -14.993  1.00 -1.68     0.235 C 
HETATM    7  H   HET A   1     -32.397  23.000 -14.783  1.00  3.03     0.280 HD
HETATM    8  C4  HET A   1     -32.646  20.795 -16.335  1.00 -3.17     0.032 C 
BRANCH   5   9
HETATM    9  C12 HET A   1     -34.022  22.917 -13.432  1.00 -1.78     0.273 C 
BRANCH   9  10
HETATM   10  C15 HET A   1     -33.057  23.703 -12.598  1.00 -1.10    -0.033 A 
HETATM   11  C19 HET A   1     -33.449  24.915 -12.029  1.00 -1.37     0.009 A 
HETATM   12  C21 HET A   1     -32.544  25.640 -11.254  1.00 -1.27     0.001 A 
HETATM   13  C22 HET A   1     -31.255  25.151 -11.054  1.00 -1.00     0.000 A 
HETATM   14  C20 HET A   1     -30.869  23.932 -11.615  1.00 -1.23     0.001 A 
HETATM   15  C18 HET A   1     -31.770  23.202 -12.385  1.00 -1.59     0.009 A 
ENDBRANCH   9  10
ENDBRANCH   5   9
ENDBRANCH   1   2
BRANCH   1  16
HETATM   16  C3  HET A   1     -33.506  20.103 -19.647  1.00 -2.25     0.065 A 
HETATM   17  C8  HET A   1     -34.720  19.493 -18.899  1.00 -2.93     0.052 A 
HETATM   18  C10 HET A   1     -34.490  18.010 -18.942  1.00  0.68    -0.041 A 
HETATM   19  C13 HET A   1     -35.357  17.020 -18.492  1.00 -3.15     0.047 A 
HETATM   20  C11 HET A   1     -33.261  17.688 -19.519  1.00 -2.15     0.019 A 
HETATM   21  C16 HET A   1     -34.955  15.692 -18.627  1.00  2.20     0.102 A 
HETATM   22  C17 HET A   1     -33.687  15.364 -19.202  1.00  1.16     0.102 A 
HETATM   23  C14 HET A   1     -32.840  16.365 -19.650  1.00 -1.55     0.055 A 
HETATM   24  C9  HET A   1     -32.571  18.907 -19.947  1.00  4.84     0.164 A 
HETATM   25  O1  HET A   1     -31.491  19.031 -20.453  1.00 -4.36    -0.292 OA
BRANCH  21  26
HETATM   26  O2  HET A   1     -35.674  14.613 -18.247  1.00 -2.48    -0.353 OA
HETATM   27  C23 HET A   1     -35.673  14.288 -16.861  1.00 -2.19     0.210 C 
ENDBRANCH  21  26
BRANCH  22  28
HETATM   28  O3  HET A   1     -33.448  14.028 -19.254  1.00 -2.63    -0.353 OA
HETATM   29  C24 HET A   1     -32.129  13.631 -19.610  1.00 -2.14     0.210 C 
ENDBRANCH  22  28
ENDBRANCH   1  16
TORSDOF 6
ENDMDL
MODEL 9
REMARK VINA RESULT:    -7.735      6.040     11.220
REMARK INTER + INTRA:         -11.188
REMARK INTER:                 -10.952
REMARK INTRA:                  -0.235
REMARK UNBOUND:                -0.740
REMARK  6 active torsions:
REMARK  status: ('A' for Active; 'I' for Inactive)
REMARK    1  A    between atoms: O2_2  and  C16_20 
REMARK    2  A    between atoms: O3_3  and  C17_21 
REMARK    3  A    between atoms: N_4  and  C12_16 
REMARK    4  A    between atoms: C1_5  and  C2_6 
REMARK    5  A    between atoms: C2_6  and  C3_7 
REMARK    6  A    between atoms: C12_16  and  C15_19 
ROOT
HETATM    1  C2  HET A   1     -35.521  17.264 -18.131  1.00 -2.90     0.017 C 
ENDROOT
BRANCH   1   2
HETATM    2  C1  HET A   1     -34.560  16.083 -18.326  1.00 -0.95    -0.011 C 
HETATM    3  C5  HET A   1     -34.688  15.487 -19.738  1.00 -3.14     0.032 C 
HETATM    4  C7  HET A   1     -33.732  14.312 -19.915  1.00 -1.71     0.235 C 
HETATM    5  N   HET A   1     -34.047  13.231 -18.895  1.00 -1.14    -0.067 N 
HETATM    6  C6  HET A   1     -33.911  13.791 -17.488  1.00 -1.68     0.235 C 
HETATM    7  H   HET A   1     -35.041  12.917 -19.045  1.00  3.03     0.280 HD
HETATM    8  C4  HET A   1     -34.855  14.978 -17.298  1.00 -3.17     0.032 C 
BRANCH   5   9
HETATM    9  C12 HET A   1     -33.115  12.040 -19.079  1.00 -1.78     0.273 C 
BRANCH   9  10
HETATM   10  C15 HET A   1     -31.758  12.404 -18.558  1.00 -1.10    -0.033 A 
HETATM   11  C19 HET A   1     -30.908  13.208 -19.318  1.00 -1.37     0.009 A 
HETATM   12  C21 HET A   1     -29.647  13.540 -18.825  1.00 -1.27     0.001 A 
HETATM   13  C22 HET A   1     -29.242  13.067 -17.579  1.00 -1.00     0.000 A 
HETATM   14  C20 HET A   1     -30.099  12.272 -16.816  1.00 -1.23     0.001 A 
HETATM   15  C18 HET A   1     -31.361  11.941 -17.301  1.00 -1.59     0.009 A 
ENDBRANCH   9  10
ENDBRANCH   5   9
ENDBRANCH   1   2
BRANCH   1  16
HETATM   16  C3  HET A   1     -34.796  18.608 -18.124  1.00 -2.25     0.065 A 
HETATM   17  C8  HET A   1     -33.448  18.590 -17.358  1.00 -2.93     0.052 A 
HETATM   18  C10 HET A   1     -33.570  19.690 -16.343  1.00  0.68    -0.041 A 
HETATM   19  C13 HET A   1     -32.578  20.138 -15.478  1.00 -3.15     0.047 A 
HETATM   20  C11 HET A   1     -34.840  20.270 -16.351  1.00 -2.15     0.019 A 
HETATM   21  C16 HET A   1     -32.894  21.182 -14.609  1.00  2.20     0.102 A 
HETATM   22  C17 HET A   1     -34.201  21.763 -14.606  1.00  1.16     0.102 A 
HETATM   23  C14 HET A   1     -35.175  21.306 -15.481  1.00 -1.55     0.055 A 
HETATM   24  C9  HET A   1     -35.671  19.647 -17.383  1.00  4.84     0.164 A 
HETATM   25  O1  HET A   1     -36.817  19.859 -17.666  1.00 -4.36    -0.292 OA
BRANCH  21  26
HETATM   26  O2  HET A   1     -32.051  21.738 -13.711  1.00 -2.48    -0.353 OA
HETATM   27  C23 HET A   1     -30.725  21.219 -13.660  1.00 -2.19     0.210 C 
ENDBRANCH  21  26
BRANCH  22  28
HETATM   28  O3  HET A   1     -34.344  22.762 -13.697  1.00 -2.63    -0.353 OA
HETATM   29  C24 HET A   1     -35.562  23.496 -13.744  1.00 -2.14     0.210 C 
ENDBRANCH  22  28
ENDBRANCH   1  16
TORSDOF 6
ENDMDL
MODEL 10
REMARK VINA RESULT:    -7.610      4.875     12.404
REMARK INTER + INTRA:         -11.020
REMARK INTER:                 -10.135
REMARK INTRA:                  -0.885
REMARK UNBOUND:                -0.740
REMARK  6 active torsions:
REMARK  status: ('A' for Active; 'I' for Inactive)
REMARK    1  A    between atoms: O2_2  and  C16_20 
REMARK    2  A    between atoms: O3_3  and  C17_21 
REMARK    3  A    between atoms: N_4  and  C12_16 
REMARK    4  A    between atoms: C1_5  and  C2_6 
REMARK    5  A    between atoms: C2_6  and  C3_7 
REMARK    6  A    between atoms: C12_16  and  C15_19 
ROOT
HETATM    1  C2  HET A   1     -36.508  23.584 -15.154  1.00 -2.90     0.017 C 
ENDROOT
BRANCH   1   2
HETATM    2  C1  HET A   1     -37.916  23.056 -15.461  1.00 -0.95    -0.011 C 
HETATM    3  C5  HET A   1     -38.970  24.170 -15.337  1.00 -3.14     0.032 C 
HETATM    4  C7  HET A   1     -40.363  23.628 -15.638  1.00 -1.71     0.235 C 
HETATM    5  N   HET A   1     -40.708  22.515 -14.662  1.00 -1.14    -0.067 N 
HETATM    6  C6  HET A   1     -39.689  21.392 -14.777  1.00 -1.68     0.235 C 
HETATM    7  H   HET A   1     -40.675  22.911 -13.687  1.00  3.03     0.280 HD
HETATM    8  C4  HET A   1     -38.285  21.922 -14.488  1.00 -3.17     0.032 C 
BRANCH   5   9
HETATM    9  C12 HET A   1     -42.108  21.984 -14.937  1.00 -1.78     0.273 C 
BRANCH   9  10
HETATM   10  C15 HET A   1     -43.063  22.611 -13.967  1.00 -1.10    -0.033 A 
HETATM   11  C19 HET A   1     -44.417  22.716 -14.285  1.00 -1.37     0.009 A 
HETATM   12  C21 HET A   1     -45.297  23.301 -13.376  1.00 -1.27     0.001 A 
HETATM   13  C22 HET A   1     -44.820  23.779 -12.157  1.00 -1.00     0.000 A 
HETATM   14  C20 HET A   1     -43.467  23.663 -11.837  1.00 -1.23     0.001 A 
HETATM   15  C18 HET A   1     -42.584  23.075 -12.738  1.00 -1.59     0.009 A 
ENDBRANCH   9  10
ENDBRANCH   5   9
ENDBRANCH   1   2
BRANCH   1  16
HETATM   16  C3  HET A   1     -35.825  22.800 -14.035  1.00 -2.25     0.065 A 
HETATM   17  C8  HET A   1     -35.191  23.696 -12.939  1.00 -2.93     0.052 A 
HETATM   18  C10 HET A   1     -33.756  23.260 -12.871  1.00  0.68    -0.041 A 
HETATM   19  C13 HET A   1     -32.795  23.697 -11.965  1.00 -3.15     0.047 A 
HETATM   20  C11 HET A   1     -33.451  22.311 -13.848  1.00 -2.15     0.019 A 
HETATM   21  C16 HET A   1     -31.512  23.162 -12.069  1.00  2.20     0.102 A 
HETATM   22  C17 HET A   1     -31.196  22.204 -13.083  1.00  1.16     0.102 A 
HETATM   23  C14 HET A   1     -32.170  21.777 -13.973  1.00 -1.55     0.055 A 
HETATM   24  C9  HET A   1     -34.647  21.995 -14.633  1.00  4.84     0.164 A 
HETATM   25  O1  HET A   1     -34.767  21.254 -15.568  1.00 -4.36    -0.292 OA
BRANCH  21  26
HETATM   26  O2  HET A   1     -30.466  23.473 -11.271  1.00 -2.48    -0.353 OA
HETATM   27  C23 HET A   1     -30.764  24.099 -10.027  1.00 -2.19     0.210 C 
ENDBRANCH  21  26
BRANCH  22  28
HETATM   28  O3  HET A   1     -29.903  21.790 -13.049  1.00 -2.63    -0.353 OA
HETATM   29  C24 HET A   1     -29.562  20.698 -13.895  1.00 -2.14     0.210 C 
ENDBRANCH  22  28
ENDBRANCH   1  16
TORSDOF 6
ENDMDL
MODEL 11
REMARK VINA RESULT:    -7.551      4.555     10.929
REMARK INTER + INTRA:         -10.940
REMARK INTER:                 -10.658
REMARK INTRA:                  -0.282
REMARK UNBOUND:                -0.740
REMARK  6 active torsions:
REMARK  status: ('A' for Active; 'I' for Inactive)
REMARK    1  A    between atoms: O2_2  and  C16_20 
REMARK    2  A    between atoms: O3_3  and  C17_21 
REMARK    3  A    between atoms: N_4  and  C12_16 
REMARK    4  A    between atoms: C1_5  and  C2_6 
REMARK    5  A    between atoms: C2_6  and  C3_7 
REMARK    6  A    between atoms: C12_16  and  C15_19 
ROOT
HETATM    1  C2  HET A   1     -35.275  20.332 -16.466  1.00 -2.90     0.017 C 
ENDROOT
BRANCH   1   2
HETATM    2  C1  HET A   1     -34.984  19.354 -17.612  1.00 -0.95    -0.011 C 
HETATM    3  C5  HET A   1     -36.218  18.497 -17.942  1.00 -3.14     0.032 C 
HETATM    4  C7  HET A   1     -35.911  17.527 -19.077  1.00 -1.71     0.235 C 
HETATM    5  N   HET A   1     -34.769  16.607 -18.677  1.00 -1.14    -0.067 N 
HETATM    6  C6  HET A   1     -33.530  17.430 -18.362  1.00 -1.68     0.235 C 
HETATM    7  H   HET A   1     -35.059  16.078 -17.815  1.00  3.03     0.280 HD
HETATM    8  C4  HET A   1     -33.824  18.417 -17.233  1.00 -3.17     0.032 C 
BRANCH   5   9
HETATM    9  C12 HET A   1     -34.471  15.616 -19.794  1.00 -1.78     0.273 C 
BRANCH   9  10
HETATM   10  C15 HET A   1     -33.528  14.573 -19.276  1.00 -1.10    -0.033 A 
HETATM   11  C19 HET A   1     -33.874  13.806 -18.162  1.00 -1.37     0.009 A 
HETATM   12  C21 HET A   1     -32.991  12.838 -17.687  1.00 -1.27     0.001 A 
HETATM   13  C22 HET A   1     -31.767  12.643 -18.325  1.00 -1.00     0.000 A 
HETATM   14  C20 HET A   1     -31.428  13.403 -19.445  1.00 -1.23     0.001 A 
HETATM   15  C18 HET A   1     -32.309  14.367 -19.927  1.00 -1.59     0.009 A 
ENDBRANCH   9  10
ENDBRANCH   5   9
ENDBRANCH   1   2
BRANCH   1  16
HETATM   16  C3  HET A   1     -34.180  21.385 -16.309  1.00 -2.25     0.065 A 
HETATM   17  C8  HET A   1     -32.904  20.862 -15.600  1.00 -2.93     0.052 A 
HETATM   18  C10 HET A   1     -32.695  21.800 -14.446  1.00  0.68    -0.041 A 
HETATM   19  C13 HET A   1     -31.619  21.810 -13.566  1.00 -3.15     0.047 A 
HETATM   20  C11 HET A   1     -33.732  22.727 -14.333  1.00 -2.15     0.019 A 
HETATM   21  C16 HET A   1     -31.611  22.772 -12.557  1.00  2.20     0.102 A 
HETATM   22  C17 HET A   1     -32.684  23.710 -12.431  1.00  1.16     0.102 A 
HETATM   23  C14 HET A   1     -33.745  23.688 -13.323  1.00 -1.55     0.055 A 
HETATM   24  C9  HET A   1     -34.707  22.527 -15.407  1.00  4.84     0.164 A 
HETATM   25  O1  HET A   1     -35.734  23.108 -15.619  1.00 -4.36    -0.292 OA
BRANCH  21  26
HETATM   26  O2  HET A   1     -30.645  22.924 -11.625  1.00 -2.48    -0.353 OA
HETATM   27  C23 HET A   1     -29.393  23.439 -12.067  1.00 -2.19     0.210 C 
ENDBRANCH  21  26
BRANCH  22  28
HETATM   28  O3  HET A   1     -32.525  24.574 -11.394  1.00 -2.63    -0.353 OA
HETATM   29  C24 HET A   1     -33.504  24.518 -10.364  1.00 -2.14     0.210 C 
ENDBRANCH  22  28
ENDBRANCH   1  16
TORSDOF 6
ENDMDL
MODEL 12
REMARK VINA RESULT:    -7.530      4.627     11.792
REMARK INTER + INTRA:         -10.912
REMARK INTER:                 -10.096
REMARK INTRA:                  -0.816
REMARK UNBOUND:                -0.740
REMARK  6 active torsions:
REMARK  status: ('A' for Active; 'I' for Inactive)
REMARK    1  A    between atoms: O2_2  and  C16_20 
REMARK    2  A    between atoms: O3_3  and  C17_21 
REMARK    3  A    between atoms: N_4  and  C12_16 
REMARK    4  A    between atoms: C1_5  and  C2_6 
REMARK    5  A    between atoms: C2_6  and  C3_7 
REMARK    6  A    between atoms: C12_16  and  C15_19 
ROOT
HETATM    1  C2  HET A   1     -34.434  21.467 -16.724  1.00 -2.90     0.017 C 
ENDROOT
BRANCH   1   2
HETATM    2  C1  HET A   1     -35.901  21.243 -17.117  1.00 -0.95    -0.011 C 
HETATM    3  C5  HET A   1     -36.685  22.566 -17.128  1.00 -3.14     0.032 C 
HETATM    4  C7  HET A   1     -38.140  22.326 -17.514  1.00 -1.71     0.235 C 
HETATM    5  N   HET A   1     -38.790  21.379 -16.518  1.00 -1.14    -0.067 N 
HETATM    6  C6  HET A   1     -38.043  20.055 -16.500  1.00 -1.68     0.235 C 
HETATM    7  H   HET A   1     -38.735  21.818 -15.563  1.00  3.03     0.280 HD
HETATM    8  C4  HET A   1     -36.578  20.280 -16.126  1.00 -3.17     0.032 C 
BRANCH   5   9
HETATM    9  C12 HET A   1     -40.252  21.152 -16.879  1.00 -1.78     0.273 C 
BRANCH   9  10
HETATM   10  C15 HET A   1     -41.109  21.629 -15.746  1.00 -1.10    -0.033 A 
HETATM   11  C19 HET A   1     -40.535  22.306 -14.669  1.00 -1.37     0.009 A 
HETATM   12  C21 HET A   1     -41.341  22.745 -13.620  1.00 -1.27     0.001 A 
HETATM   13  C22 HET A   1     -42.713  22.504 -13.651  1.00 -1.00     0.000 A 
HETATM   14  C20 HET A   1     -43.286  21.836 -14.734  1.00 -1.23     0.001 A 
HETATM   15  C18 HET A   1     -42.488  21.401 -15.787  1.00 -1.59     0.009 A 
ENDBRANCH   9  10
ENDBRANCH   5   9
ENDBRANCH   1   2
BRANCH   1  16
HETATM   16  C3  HET A   1     -34.188  21.221 -15.236  1.00 -2.25     0.065 A 
HETATM   17  C8  HET A   1     -34.460  22.459 -14.343  1.00 -2.93     0.052 A 
HETATM   18  C10 HET A   1     -33.183  22.668 -13.579  1.00  0.68    -0.041 A 
HETATM   19  C13 HET A   1     -32.959  23.597 -12.570  1.00 -3.15     0.047 A 
HETATM   20  C11 HET A   1     -32.181  21.785 -13.987  1.00 -2.15     0.019 A 
HETATM   21  C16 HET A   1     -31.696  23.627 -11.981  1.00  2.20     0.102 A 
HETATM   22  C17 HET A   1     -30.664  22.735 -12.412  1.00  1.16     0.102 A 
HETATM   23  C14 HET A   1     -30.909  21.811 -13.416  1.00 -1.55     0.055 A 
HETATM   24  C9  HET A   1     -32.692  20.886 -15.024  1.00  4.84     0.164 A 
HETATM   25  O1  HET A   1     -32.122  20.023 -15.629  1.00 -4.36    -0.292 OA
BRANCH  21  26
HETATM   26  O2  HET A   1     -31.313  24.461 -10.989  1.00 -2.48    -0.353 OA
HETATM   27  C23 HET A   1     -32.342  25.030 -10.187  1.00 -2.19     0.210 C 
ENDBRANCH  21  26
BRANCH  22  28
HETATM   28  O3  HET A   1     -29.495  22.899 -11.741  1.00 -2.63    -0.353 OA
HETATM   29  C24 HET A   1     -28.307  22.903 -12.524  1.00 -2.14     0.210 C 
ENDBRANCH  22  28
ENDBRANCH   1  16
TORSDOF 6
ENDMDL
MODEL 13
REMARK VINA RESULT:    -7.474      5.079      9.147
REMARK INTER + INTRA:         -10.836
REMARK INTER:                 -10.300
REMARK INTRA:                  -0.537
REMARK UNBOUND:                -0.740
REMARK  6 active torsions:
REMARK  status: ('A' for Active; 'I' for Inactive)
REMARK    1  A    between atoms: O2_2  and  C16_20 
REMARK    2  A    between atoms: O3_3  and  C17_21 
REMARK    3  A    between atoms: N_4  and  C12_16 
REMARK    4  A    between atoms: C1_5  and  C2_6 
REMARK    5  A    between atoms: C2_6  and  C3_7 
REMARK    6  A    between atoms: C12_16  and  C15_19 
ROOT
HETATM    1  C2  HET A   1     -38.323  21.309 -14.205  1.00 -2.90     0.017 C 
ENDROOT
BRANCH   1   2
HETATM    2  C1  HET A   1     -37.499  22.561 -13.877  1.00 -0.95    -0.011 C 
HETATM    3  C5  HET A   1     -36.113  22.508 -14.543  1.00 -3.14     0.032 C 
HETATM    4  C7  HET A   1     -35.304  23.755 -14.202  1.00 -1.71     0.235 C 
HETATM    5  N   HET A   1     -35.121  23.858 -12.697  1.00 -1.14    -0.067 N 
HETATM    6  C6  HET A   1     -36.479  23.929 -12.015  1.00 -1.68     0.235 C 
HETATM    7  H   HET A   1     -34.616  22.996 -12.368  1.00  3.03     0.280 HD
HETATM    8  C4  HET A   1     -37.307  22.691 -12.356  1.00 -3.17     0.032 C 
BRANCH   5   9
HETATM    9  C12 HET A   1     -34.292  25.087 -12.347  1.00 -1.78     0.273 C 
BRANCH   9  10
HETATM   10  C15 HET A   1     -32.878  24.660 -12.095  1.00 -1.10    -0.033 A 
HETATM   11  C19 HET A   1     -31.957  25.565 -11.566  1.00 -1.37     0.009 A 
HETATM   12  C21 HET A   1     -30.644  25.158 -11.335  1.00 -1.27     0.001 A 
HETATM   13  C22 HET A   1     -30.257  23.854 -11.637  1.00 -1.00     0.000 A 
HETATM   14  C20 HET A   1     -31.183  22.948 -12.156  1.00 -1.23     0.001 A 
HETATM   15  C18 HET A   1     -32.497  23.347 -12.383  1.00 -1.59     0.009 A 
ENDBRANCH   9  10
ENDBRANCH   5   9
ENDBRANCH   1   2
BRANCH   1  16
HETATM   16  C3  HET A   1     -39.599  21.640 -14.976  1.00 -2.25     0.065 A 
HETATM   17  C8  HET A   1     -40.900  21.416 -14.161  1.00 -2.93     0.052 A 
HETATM   18  C10 HET A   1     -41.726  20.488 -15.004  1.00  0.68    -0.041 A 
HETATM   19  C13 HET A   1     -43.027  20.068 -14.751  1.00 -3.15     0.047 A 
HETATM   20  C11 HET A   1     -41.037  20.065 -16.143  1.00 -2.15     0.019 A 
HETATM   21  C16 HET A   1     -43.622  19.202 -15.667  1.00  2.20     0.102 A 
HETATM   22  C17 HET A   1     -42.909  18.755 -16.824  1.00  1.16     0.102 A 
HETATM   23  C14 HET A   1     -41.614  19.190 -17.062  1.00 -1.55     0.055 A 
HETATM   24  C9  HET A   1     -39.713  20.689 -16.191  1.00  4.84     0.164 A 
HETATM   25  O1  HET A   1     -38.835  20.547 -16.996  1.00 -4.36    -0.292 OA
BRANCH  21  26
HETATM   26  O2  HET A   1     -44.875  18.704 -15.576  1.00 -2.48    -0.353 OA
HETATM   27  C23 HET A   1     -45.092  17.668 -14.623  1.00 -2.19     0.210 C 
ENDBRANCH  21  26
BRANCH  22  28
HETATM   28  O3  HET A   1     -43.629  17.912 -17.608  1.00 -2.63    -0.353 OA
HETATM   29  C24 HET A   1     -43.248  17.834 -18.977  1.00 -2.14     0.210 C 
ENDBRANCH  22  28
ENDBRANCH   1  16
TORSDOF 6
ENDMDL
MODEL 14
REMARK VINA RESULT:    -7.455      4.682     12.549
REMARK INTER + INTRA:         -10.811
REMARK INTER:                 -10.035
REMARK INTRA:                  -0.776
REMARK UNBOUND:                -0.740
REMARK  6 active torsions:
REMARK  status: ('A' for Active; 'I' for Inactive)
REMARK    1  A    between atoms: O2_2  and  C16_20 
REMARK    2  A    between atoms: O3_3  and  C17_21 
REMARK    3  A    between atoms: N_4  and  C12_16 
REMARK    4  A    between atoms: C1_5  and  C2_6 
REMARK    5  A    between atoms: C2_6  and  C3_7 
REMARK    6  A    between atoms: C12_16  and  C15_19 
ROOT
HETATM    1  C2  HET A   1     -36.187  23.663 -15.179  1.00 -2.90     0.017 C 
ENDROOT
BRANCH   1   2
HETATM    2  C1  HET A   1     -37.704  23.832 -15.015  1.00 -0.95    -0.011 C 
HETATM    3  C5  HET A   1     -38.253  22.905 -13.917  1.00 -3.14     0.032 C 
HETATM    4  C7  HET A   1     -39.761  23.079 -13.771  1.00 -1.71     0.235 C 
HETATM    5  N   HET A   1     -40.450  22.747 -15.084  1.00 -1.14    -0.067 N 
HETATM    6  C6  HET A   1     -39.936  23.663 -16.184  1.00 -1.68     0.235 C 
HETATM    7  H   HET A   1     -40.222  21.750 -15.332  1.00  3.03     0.280 HD
HETATM    8  C4  HET A   1     -38.423  23.508 -16.336  1.00 -3.17     0.032 C 
BRANCH   5   9
HETATM    9  C12 HET A   1     -41.960  22.893 -14.942  1.00 -1.78     0.273 C 
BRANCH   9  10
HETATM   10  C15 HET A   1     -42.600  21.563 -15.200  1.00 -1.10    -0.033 A 
HETATM   11  C19 HET A   1     -42.000  20.393 -14.733  1.00 -1.37     0.009 A 
HETATM   12  C21 HET A   1     -42.604  19.161 -14.978  1.00 -1.27     0.001 A 
HETATM   13  C22 HET A   1     -43.800  19.104 -15.690  1.00 -1.00     0.000 A 
HETATM   14  C20 HET A   1     -44.404  20.276 -16.147  1.00 -1.23     0.001 A 
HETATM   15  C18 HET A   1     -43.809  21.510 -15.900  1.00 -1.59     0.009 A 
ENDBRANCH   9  10
ENDBRANCH   5   9
ENDBRANCH   1   2
BRANCH   1  16
HETATM   16  C3  HET A   1     -35.542  22.999 -13.964  1.00 -2.25     0.065 A 
HETATM   17  C8  HET A   1     -34.901  24.002 -12.969  1.00 -2.93     0.052 A 
HETATM   18  C10 HET A   1     -33.479  23.541 -12.825  1.00  0.68    -0.041 A 
HETATM   19  C13 HET A   1     -32.520  24.057 -11.960  1.00 -3.15     0.047 A 
HETATM   20  C11 HET A   1     -33.186  22.476 -13.679  1.00 -2.15     0.019 A 
HETATM   21  C16 HET A   1     -31.250  23.482 -11.978  1.00  2.20     0.102 A 
HETATM   22  C17 HET A   1     -30.946  22.403 -12.866  1.00  1.16     0.102 A 
HETATM   23  C14 HET A   1     -31.918  21.898 -13.716  1.00 -1.55     0.055 A 
HETATM   24  C9  HET A   1     -34.378  22.100 -14.442  1.00  4.84     0.164 A 
HETATM   25  O1  HET A   1     -34.505  21.257 -15.285  1.00 -4.36    -0.292 OA
BRANCH  21  26
HETATM   26  O2  HET A   1     -30.208  23.857 -11.203  1.00 -2.48    -0.353 OA
HETATM   27  C23 HET A   1     -30.407  23.832  -9.793  1.00 -2.19     0.210 C 
ENDBRANCH  21  26
BRANCH  22  28
HETATM   28  O3  HET A   1     -29.665  21.963 -12.761  1.00 -2.63    -0.353 OA
HETATM   29  C24 HET A   1     -29.270  20.934 -13.659  1.00 -2.14     0.210 C 
ENDBRANCH  22  28
ENDBRANCH   1  16
TORSDOF 6
ENDMDL
MODEL 15
REMARK VINA RESULT:    -7.448     14.722     17.119
REMARK INTER + INTRA:         -10.801
REMARK INTER:                 -10.160
REMARK INTRA:                  -0.641
REMARK UNBOUND:                -0.740
REMARK  6 active torsions:
REMARK  status: ('A' for Active; 'I' for Inactive)
REMARK    1  A    between atoms: O2_2  and  C16_20 
REMARK    2  A    between atoms: O3_3  and  C17_21 
REMARK    3  A    between atoms: N_4  and  C12_16 
REMARK    4  A    between atoms: C1_5  and  C2_6 
REMARK    5  A    between atoms: C2_6  and  C3_7 
REMARK    6  A    between atoms: C12_16  and  C15_19 
ROOT
HETATM    1  C2  HET A   1     -43.414  26.167  -2.120  1.00 -2.90     0.017 C 
ENDROOT
BRANCH   1   2
HETATM    2  C1  HET A   1     -43.837  27.396  -1.303  1.00 -0.95    -0.011 C 
HETATM    3  C5  HET A   1     -43.199  28.681  -1.859  1.00 -3.14     0.032 C 
HETATM    4  C7  HET A   1     -43.623  29.892  -1.034  1.00 -1.71     0.235 C 
HETATM    5  N   HET A   1     -43.186  29.712   0.410  1.00 -1.14    -0.067 N 
HETATM    6  C6  HET A   1     -43.816  28.455   0.989  1.00 -1.68     0.235 C 
HETATM    7  H   HET A   1     -42.138  29.610   0.427  1.00  3.03     0.280 HD
HETATM    8  C4  HET A   1     -43.410  27.233   0.166  1.00 -3.17     0.032 C 
BRANCH   5   9
HETATM    9  C12 HET A   1     -43.581  30.927   1.239  1.00 -1.78     0.273 C 
BRANCH   9  10
HETATM   10  C15 HET A   1     -42.359  31.754   1.498  1.00 -1.10    -0.033 A 
HETATM   11  C19 HET A   1     -42.461  33.142   1.605  1.00 -1.37     0.009 A 
HETATM   12  C21 HET A   1     -41.318  33.903   1.846  1.00 -1.27     0.001 A 
HETATM   13  C22 HET A   1     -40.081  33.275   1.975  1.00 -1.00     0.000 A 
HETATM   14  C20 HET A   1     -39.983  31.887   1.878  1.00 -1.23     0.001 A 
HETATM   15  C18 HET A   1     -41.121  31.121   1.644  1.00 -1.59     0.009 A 
ENDBRANCH   9  10
ENDBRANCH   5   9
ENDBRANCH   1   2
BRANCH   1  16
HETATM   16  C3  HET A   1     -44.416  25.831  -3.223  1.00 -2.25     0.065 A 
HETATM   17  C8  HET A   1     -44.785  24.326  -3.297  1.00 -2.93     0.052 A 
HETATM   18  C10 HET A   1     -44.487  23.927  -4.714  1.00  0.68    -0.041 A 
HETATM   19  C13 HET A   1     -44.748  22.696  -5.304  1.00 -3.15     0.047 A 
HETATM   20  C11 HET A   1     -43.899  24.967  -5.436  1.00 -2.15     0.019 A 
HETATM   21  C16 HET A   1     -44.395  22.528  -6.643  1.00  2.20     0.102 A 
HETATM   22  C17 HET A   1     -43.776  23.589  -7.377  1.00  1.16     0.102 A 
HETATM   23  C14 HET A   1     -43.530  24.811  -6.771  1.00 -1.55     0.055 A 
HETATM   24  C9  HET A   1     -43.781  26.161  -4.595  1.00  4.84     0.164 A 
HETATM   25  O1  HET A   1     -43.306  27.230  -4.857  1.00 -4.36    -0.292 OA
BRANCH  21  26
HETATM   26  O2  HET A   1     -44.581  21.403  -7.367  1.00 -2.48    -0.353 OA
HETATM   27  C23 HET A   1     -45.923  21.054  -7.689  1.00 -2.19     0.210 C 
ENDBRANCH  21  26
BRANCH  22  28
HETATM   28  O3  HET A   1     -43.492  23.259  -8.663  1.00 -2.63    -0.353 OA
HETATM   29  C24 HET A   1     -42.135  22.948  -8.956  1.00 -2.14     0.210 C 
ENDBRANCH  22  28
ENDBRANCH   1  16
TORSDOF 6
ENDMDL
MODEL 16
REMARK VINA RESULT:    -7.433     33.626     34.980
REMARK INTER + INTRA:         -10.780
REMARK INTER:                 -10.026
REMARK INTRA:                  -0.754
REMARK UNBOUND:                -0.740
REMARK  6 active torsions:
REMARK  status: ('A' for Active; 'I' for Inactive)
REMARK    1  A    between atoms: O2_2  and  C16_20 
REMARK    2  A    between atoms: O3_3  and  C17_21 
REMARK    3  A    between atoms: N_4  and  C12_16 
REMARK    4  A    between atoms: C1_5  and  C2_6 
REMARK    5  A    between atoms: C2_6  and  C3_7 
REMARK    6  A    between atoms: C12_16  and  C15_19 
ROOT
HETATM    1  C2  HET A   1      -4.683  33.483   7.611  1.00 -2.90     0.017 C 
ENDROOT
BRANCH   1   2
HETATM    2  C1  HET A   1      -3.479  32.538   7.729  1.00 -0.95    -0.011 C 
HETATM    3  C5  HET A   1      -2.412  32.860   6.668  1.00 -3.14     0.032 C 
HETATM    4  C7  HET A   1      -1.226  31.909   6.794  1.00 -1.71     0.235 C 
HETATM    5  N   HET A   1      -1.690  30.475   6.604  1.00 -1.14    -0.067 N 
HETATM    6  C6  HET A   1      -2.735  30.126   7.652  1.00 -1.68     0.235 C 
HETATM    7  H   HET A   1      -2.122  30.393   5.647  1.00  3.03     0.280 HD
HETATM    8  C4  HET A   1      -3.927  31.077   7.547  1.00 -3.17     0.032 C 
BRANCH   5   9
HETATM    9  C12 HET A   1      -0.509  29.518   6.700  1.00 -1.78     0.273 C 
BRANCH   9  10
HETATM   10  C15 HET A   1      -0.396  28.757   5.415  1.00 -1.10    -0.033 A 
HETATM   11  C19 HET A   1      -1.398  27.861   5.040  1.00 -1.37     0.009 A 
HETATM   12  C21 HET A   1      -1.284  27.158   3.842  1.00 -1.27     0.001 A 
HETATM   13  C22 HET A   1      -0.170  27.351   3.027  1.00 -1.00     0.000 A 
HETATM   14  C20 HET A   1       0.825  28.256   3.399  1.00 -1.23     0.001 A 
HETATM   15  C18 HET A   1       0.713  28.965   4.591  1.00 -1.59     0.009 A 
ENDBRANCH   9  10
ENDBRANCH   5   9
ENDBRANCH   1   2
BRANCH   1  16
HETATM   16  C3  HET A   1      -4.814  34.409   8.818  1.00 -2.25     0.065 A 
HETATM   17  C8  HET A   1      -6.256  34.503   9.383  1.00 -2.93     0.052 A 
HETATM   18  C10 HET A   1      -6.573  35.971   9.380  1.00  0.68    -0.041 A 
HETATM   19  C13 HET A   1      -7.716  36.577   9.891  1.00 -3.15     0.047 A 
HETATM   20  C11 HET A   1      -5.554  36.724   8.795  1.00 -2.15     0.019 A 
HETATM   21  C16 HET A   1      -7.817  37.964   9.792  1.00  2.20     0.102 A 
HETATM   22  C17 HET A   1      -6.781  38.733   9.176  1.00  1.16     0.102 A 
HETATM   23  C14 HET A   1      -5.646  38.111   8.678  1.00 -1.55     0.055 A 
HETATM   24  C9  HET A   1      -4.452  35.850   8.387  1.00  4.84     0.164 A 
HETATM   25  O1  HET A   1      -3.427  36.129   7.831  1.00 -4.36    -0.292 OA
BRANCH  21  26
HETATM   26  O2  HET A   1      -8.853  38.708  10.238  1.00 -2.48    -0.353 OA
HETATM   27  C23 HET A   1      -9.238  38.534  11.598  1.00 -2.19     0.210 C 
ENDBRANCH  21  26
BRANCH  22  28
HETATM   28  O3  HET A   1      -7.038  40.066   9.156  1.00 -2.63    -0.353 OA
HETATM   29  C24 HET A   1      -6.064  40.912   9.755  1.00 -2.14     0.210 C 
ENDBRANCH  22  28
ENDBRANCH   1  16
TORSDOF 6
ENDMDL
MODEL 17
REMARK VINA RESULT:    -7.433     16.065     18.461
REMARK INTER + INTRA:         -10.780
REMARK INTER:                  -9.659
REMARK INTRA:                  -1.121
REMARK UNBOUND:                -0.740
REMARK  6 active torsions:
REMARK  status: ('A' for Active; 'I' for Inactive)
REMARK    1  A    between atoms: O2_2  and  C16_20 
REMARK    2  A    between atoms: O3_3  and  C17_21 
REMARK    3  A    between atoms: N_4  and  C12_16 
REMARK    4  A    between atoms: C1_5  and  C2_6 
REMARK    5  A    between atoms: C2_6  and  C3_7 
REMARK    6  A    between atoms: C12_16  and  C15_19 
ROOT
HETATM    1  C2  HET A   1     -45.342  28.898  -3.043  1.00 -2.90     0.017 C 
ENDROOT
BRANCH   1   2
HETATM    2  C1  HET A   1     -44.771  28.989  -1.621  1.00 -0.95    -0.011 C 
HETATM    3  C5  HET A   1     -45.691  29.813  -0.703  1.00 -3.14     0.032 C 
HETATM    4  C7  HET A   1     -45.107  29.899   0.703  1.00 -1.71     0.235 C 
HETATM    5  N   HET A   1     -43.740  30.562   0.656  1.00 -1.14    -0.067 N 
HETATM    6  C6  HET A   1     -42.806  29.757  -0.234  1.00 -1.68     0.235 C 
HETATM    7  H   HET A   1     -43.856  31.526   0.250  1.00  3.03     0.280 HD
HETATM    8  C4  HET A   1     -43.382  29.651  -1.645  1.00 -3.17     0.032 C 
BRANCH   5   9
HETATM    9  C12 HET A   1     -43.159  30.678   2.059  1.00 -1.78     0.273 C 
BRANCH   9  10
HETATM   10  C15 HET A   1     -41.947  31.558   2.009  1.00 -1.10    -0.033 A 
HETATM   11  C19 HET A   1     -40.691  31.039   2.325  1.00 -1.37     0.009 A 
HETATM   12  C21 HET A   1     -39.569  31.865   2.275  1.00 -1.27     0.001 A 
HETATM   13  C22 HET A   1     -39.708  33.203   1.914  1.00 -1.00     0.000 A 
HETATM   14  C20 HET A   1     -40.964  33.717   1.587  1.00 -1.23     0.001 A 
HETATM   15  C18 HET A   1     -42.086  32.895   1.629  1.00 -1.59     0.009 A 
ENDBRANCH   9  10
ENDBRANCH   5   9
ENDBRANCH   1   2
BRANCH   1  16
HETATM   16  C3  HET A   1     -45.493  27.454  -3.517  1.00 -2.25     0.065 A 
HETATM   17  C8  HET A   1     -46.113  26.508  -2.455  1.00 -2.93     0.052 A 
HETATM   18  C10 HET A   1     -45.121  25.390  -2.312  1.00  0.68    -0.041 A 
HETATM   19  C13 HET A   1     -45.270  24.237  -1.550  1.00 -3.15     0.047 A 
HETATM   20  C11 HET A   1     -43.969  25.615  -3.068  1.00 -2.15     0.019 A 
HETATM   21  C16 HET A   1     -44.226  23.313  -1.556  1.00  2.20     0.102 A 
HETATM   22  C17 HET A   1     -43.038  23.553  -2.316  1.00  1.16     0.102 A 
HETATM   23  C14 HET A   1     -42.911  24.706  -3.074  1.00 -1.55     0.055 A 
HETATM   24  C9  HET A   1     -44.090  26.872  -3.809  1.00  4.84     0.164 A 
HETATM   25  O1  HET A   1     -43.298  27.405  -4.535  1.00 -4.36    -0.292 OA
BRANCH  21  26
HETATM   26  O2  HET A   1     -44.209  22.144  -0.877  1.00 -2.48    -0.353 OA
HETATM   27  C23 HET A   1     -45.425  21.405  -0.829  1.00 -2.19     0.210 C 
ENDBRANCH  21  26
BRANCH  22  28
HETATM   28  O3  HET A   1     -42.119  22.559  -2.207  1.00 -2.63    -0.353 OA
HETATM   29  C24 HET A   1     -41.070  22.554  -3.168  1.00 -2.14     0.210 C 
ENDBRANCH  22  28
ENDBRANCH   1  16
TORSDOF 6
ENDMDL
MODEL 18
REMARK VINA RESULT:    -7.373      4.462     10.643
REMARK INTER + INTRA:         -10.699
REMARK INTER:                  -9.822
REMARK INTRA:                  -0.877
REMARK UNBOUND:                -0.740
REMARK  6 active torsions:
REMARK  status: ('A' for Active; 'I' for Inactive)
REMARK    1  A    between atoms: O2_2  and  C16_20 
REMARK    2  A    between atoms: O3_3  and  C17_21 
REMARK    3  A    between atoms: N_4  and  C12_16 
REMARK    4  A    between atoms: C1_5  and  C2_6 
REMARK    5  A    between atoms: C2_6  and  C3_7 
REMARK    6  A    between atoms: C12_16  and  C15_19 
ROOT
HETATM    1  C2  HET A   1     -35.072  20.176 -16.135  1.00 -2.90     0.017 C 
ENDROOT
BRANCH   1   2
HETATM    2  C1  HET A   1     -34.908  19.455 -17.481  1.00 -0.95    -0.011 C 
HETATM    3  C5  HET A   1     -33.892  18.304 -17.377  1.00 -3.14     0.032 C 
HETATM    4  C7  HET A   1     -33.736  17.603 -18.722  1.00 -1.71     0.235 C 
HETATM    5  N   HET A   1     -33.251  18.592 -19.769  1.00 -1.14    -0.067 N 
HETATM    6  C6  HET A   1     -34.248  19.733 -19.902  1.00 -1.68     0.235 C 
HETATM    7  H   HET A   1     -32.326  18.980 -19.451  1.00  3.03     0.280 HD
HETATM    8  C4  HET A   1     -34.424  20.440 -18.559  1.00 -3.17     0.032 C 
BRANCH   5   9
HETATM    9  C12 HET A   1     -33.066  17.897 -21.111  1.00 -1.78     0.273 C 
BRANCH   9  10
HETATM   10  C15 HET A   1     -31.924  18.541 -21.836  1.00 -1.10    -0.033 A 
HETATM   11  C19 HET A   1     -30.745  18.845 -21.156  1.00 -1.37     0.009 A 
HETATM   12  C21 HET A   1     -29.688  19.444 -21.839  1.00 -1.27     0.001 A 
HETATM   13  C22 HET A   1     -29.815  19.737 -23.195  1.00 -1.00     0.000 A 
HETATM   14  C20 HET A   1     -30.991  19.421 -23.876  1.00 -1.23     0.001 A 
HETATM   15  C18 HET A   1     -32.048  18.818 -23.200  1.00 -1.59     0.009 A 
ENDBRANCH   9  10
ENDBRANCH   5   9
ENDBRANCH   1   2
BRANCH   1  16
HETATM   16  C3  HET A   1     -34.083  21.328 -15.970  1.00 -2.25     0.065 A 
HETATM   17  C8  HET A   1     -32.767  20.927 -15.252  1.00 -2.93     0.052 A 
HETATM   18  C10 HET A   1     -32.656  21.879 -14.096  1.00  0.68    -0.041 A 
HETATM   19  C13 HET A   1     -31.592  21.990 -13.209  1.00 -3.15     0.047 A 
HETATM   20  C11 HET A   1     -33.777  22.703 -13.989  1.00 -2.15     0.019 A 
HETATM   21  C16 HET A   1     -31.683  22.947 -12.199  1.00  2.20     0.102 A 
HETATM   22  C17 HET A   1     -32.840  23.779 -12.079  1.00  1.16     0.102 A 
HETATM   23  C14 HET A   1     -33.889  23.657 -12.978  1.00 -1.55     0.055 A 
HETATM   24  C9  HET A   1     -34.721  22.413 -15.071  1.00  4.84     0.164 A 
HETATM   25  O1  HET A   1     -35.798  22.894 -15.289  1.00 -4.36    -0.292 OA
BRANCH  21  26
HETATM   26  O2  HET A   1     -30.742  23.188 -11.260  1.00 -2.48    -0.353 OA
HETATM   27  C23 HET A   1     -29.510  23.747 -11.705  1.00 -2.19     0.210 C 
ENDBRANCH  21  26
BRANCH  22  28
HETATM   28  O3  HET A   1     -32.772  24.652 -11.041  1.00 -2.63    -0.353 OA
HETATM   29  C24 HET A   1     -32.798  26.035 -11.370  1.00 -2.14     0.210 C 
ENDBRANCH  22  28
ENDBRANCH   1  16
TORSDOF 6
ENDMDL
MODEL 19
REMARK VINA RESULT:    -7.309     33.444     34.975
REMARK INTER + INTRA:         -10.613
REMARK INTER:                  -9.708
REMARK INTRA:                  -0.905
REMARK UNBOUND:                -0.740
REMARK  6 active torsions:
REMARK  status: ('A' for Active; 'I' for Inactive)
REMARK    1  A    between atoms: O2_2  and  C16_20 
REMARK    2  A    between atoms: O3_3  and  C17_21 
REMARK    3  A    between atoms: N_4  and  C12_16 
REMARK    4  A    between atoms: C1_5  and  C2_6 
REMARK    5  A    between atoms: C2_6  and  C3_7 
REMARK    6  A    between atoms: C12_16  and  C15_19 
ROOT
HETATM    1  C2  HET A   1      -6.038  41.999   6.556  1.00 -2.90     0.017 C 
ENDROOT
BRANCH   1   2
HETATM    2  C1  HET A   1      -6.673  41.509   7.865  1.00 -0.95    -0.011 C 
HETATM    3  C5  HET A   1      -5.760  40.503   8.586  1.00 -3.14     0.032 C 
HETATM    4  C7  HET A   1      -6.406  40.022   9.880  1.00 -1.71     0.235 C 
HETATM    5  N   HET A   1      -7.734  39.348   9.575  1.00 -1.14    -0.067 N 
HETATM    6  C6  HET A   1      -8.663  40.328   8.876  1.00 -1.68     0.235 C 
HETATM    7  H   HET A   1      -7.550  38.532   8.936  1.00  3.03     0.280 HD
HETATM    8  C4  HET A   1      -8.024  40.829   7.581  1.00 -3.17     0.032 C 
BRANCH   5   9
HETATM    9  C12 HET A   1      -8.377  38.839  10.859  1.00 -1.78     0.273 C 
BRANCH   9  10
HETATM   10  C15 HET A   1      -8.337  37.341  10.859  1.00 -1.10    -0.033 A 
HETATM   11  C19 HET A   1      -8.646  36.632  12.020  1.00 -1.37     0.009 A 
HETATM   12  C21 HET A   1      -8.606  35.239  12.011  1.00 -1.27     0.001 A 
HETATM   13  C22 HET A   1      -8.256  34.562  10.844  1.00 -1.00     0.000 A 
HETATM   14  C20 HET A   1      -7.958  35.273   9.681  1.00 -1.23     0.001 A 
HETATM   15  C18 HET A   1      -8.002  36.665   9.683  1.00 -1.59     0.009 A 
ENDBRANCH   9  10
ENDBRANCH   5   9
ENDBRANCH   1   2
BRANCH   1  16
HETATM   16  C3  HET A   1      -5.691  40.848   5.613  1.00 -2.25     0.065 A 
HETATM   17  C8  HET A   1      -4.183  40.760   5.260  1.00 -2.93     0.052 A 
HETATM   18  C10 HET A   1      -4.139  40.788   3.759  1.00  0.68    -0.041 A 
HETATM   19  C13 HET A   1      -3.015  40.632   2.957  1.00 -3.15     0.047 A 
HETATM   20  C11 HET A   1      -5.404  40.984   3.203  1.00 -2.15     0.019 A 
HETATM   21  C16 HET A   1      -3.189  40.686   1.574  1.00  2.20     0.102 A 
HETATM   22  C17 HET A   1      -4.483  40.906   1.006  1.00  1.16     0.102 A 
HETATM   23  C14 HET A   1      -5.593  41.053   1.824  1.00 -1.55     0.055 A 
HETATM   24  C9  HET A   1      -6.412  41.070   4.263  1.00  4.84     0.164 A 
HETATM   25  O1  HET A   1      -7.593  41.261   4.174  1.00 -4.36    -0.292 OA
BRANCH  21  26
HETATM   26  O2  HET A   1      -2.208  40.550   0.654  1.00 -2.48    -0.353 OA
HETATM   27  C23 HET A   1      -0.908  41.001   1.022  1.00 -2.19     0.210 C 
ENDBRANCH  21  26
BRANCH  22  28
HETATM   28  O3  HET A   1      -4.477  40.937  -0.352  1.00 -2.63    -0.353 OA
HETATM   29  C24 HET A   1      -5.200  41.997  -0.967  1.00 -2.14     0.210 C 
ENDBRANCH  22  28
ENDBRANCH   1  16
TORSDOF 6
ENDMDL
MODEL 20
REMARK VINA RESULT:    -7.283      6.576      9.342
REMARK INTER + INTRA:         -10.579
REMARK INTER:                  -9.740
REMARK INTRA:                  -0.838
REMARK UNBOUND:                -0.740
REMARK  6 active torsions:
REMARK  status: ('A' for Active; 'I' for Inactive)
REMARK    1  A    between atoms: O2_2  and  C16_20 
REMARK    2  A    between atoms: O3_3  and  C17_21 
REMARK    3  A    between atoms: N_4  and  C12_16 
REMARK    4  A    between atoms: C1_5  and  C2_6 
REMARK    5  A    between atoms: C2_6  and  C3_7 
REMARK    6  A    between atoms: C12_16  and  C15_19 
ROOT
HETATM    1  C2  HET A   1     -34.067  23.245 -19.274  1.00 -2.90     0.017 C 
ENDROOT
BRANCH   1   2
HETATM    2  C1  HET A   1     -34.104  22.725 -17.831  1.00 -0.95    -0.011 C 
HETATM    3  C5  HET A   1     -34.792  23.732 -16.893  1.00 -3.14     0.032 C 
HETATM    4  C7  HET A   1     -34.816  23.204 -15.462  1.00 -1.71     0.235 C 
HETATM    5  N   HET A   1     -33.396  22.970 -14.974  1.00 -1.14    -0.067 N 
HETATM    6  C6  HET A   1     -32.698  21.964 -15.876  1.00 -1.68     0.235 C 
HETATM    7  H   HET A   1     -32.878  23.886 -15.015  1.00  3.03     0.280 HD
HETATM    8  C4  HET A   1     -32.676  22.473 -17.317  1.00 -3.17     0.032 C 
BRANCH   5   9
HETATM    9  C12 HET A   1     -33.405  22.468 -13.536  1.00 -1.78     0.273 C 
BRANCH   9  10
HETATM   10  C15 HET A   1     -32.527  23.355 -12.708  1.00 -1.10    -0.033 A 
HETATM   11  C19 HET A   1     -33.036  24.536 -12.165  1.00 -1.37     0.009 A 
HETATM   12  C21 HET A   1     -32.211  25.355 -11.396  1.00 -1.27     0.001 A 
HETATM   13  C22 HET A   1     -30.884  24.992 -11.175  1.00 -1.00     0.000 A 
HETATM   14  C20 HET A   1     -30.381  23.805 -11.709  1.00 -1.23     0.001 A 
HETATM   15  C18 HET A   1     -31.202  22.980 -12.473  1.00 -1.59     0.009 A 
ENDBRANCH   9  10
ENDBRANCH   5   9
ENDBRANCH   1   2
BRANCH   1  16
HETATM   16  C3  HET A   1     -32.753  23.950 -19.604  1.00 -2.25     0.065 A 
HETATM   17  C8  HET A   1     -32.804  25.489 -19.422  1.00 -2.93     0.052 A 
HETATM   18  C10 HET A   1     -32.371  26.046 -20.748  1.00  0.68    -0.041 A 
HETATM   19  C13 HET A   1     -32.157  27.384 -21.059  1.00 -3.15     0.047 A 
HETATM   20  C11 HET A   1     -32.179  25.042 -21.698  1.00 -2.15     0.019 A 
HETATM   21  C16 HET A   1     -31.751  27.694 -22.356  1.00  2.20     0.102 A 
HETATM   22  C17 HET A   1     -31.572  26.666 -23.334  1.00  1.16     0.102 A 
HETATM   23  C14 HET A   1     -31.785  25.337 -23.003  1.00 -1.55     0.055 A 
HETATM   24  C9  HET A   1     -32.425  23.728 -21.100  1.00  4.84     0.164 A 
HETATM   25  O1  HET A   1     -32.387  22.643 -21.608  1.00 -4.36    -0.292 OA
BRANCH  21  26
HETATM   26  O2  HET A   1     -31.496  28.937 -22.822  1.00 -2.48    -0.353 OA
HETATM   27  C23 HET A   1     -30.329  29.587 -22.330  1.00 -2.19     0.210 C 
ENDBRANCH  21  26
BRANCH  22  28
HETATM   28  O3  HET A   1     -31.181  27.138 -24.546  1.00 -2.63    -0.353 OA
HETATM   29  C24 HET A   1     -30.086  26.473 -25.166  1.00 -2.14     0.210 C 
ENDBRANCH  22  28
ENDBRANCH   1  16
TORSDOF 6
ENDMDL
