REMARK  5 active torsions:
REMARK  status: ('A' for Active; 'I' for Inactive)
REMARK    1  A    between atoms: S1_1  and  S2_2 
REMARK    2  A    between atoms: S1_1  and  C1_4 
REMARK    3  A    between atoms: S2_2  and  C2_5 
REMARK    4  A    between atoms: C1_4  and  C3_6 
REMARK    5  A    between atoms: C2_5  and  C4_7 
ROOT
ATOM      1  S1  IPH A   1       0.119  -0.094   0.044  0.00  0.00     0.070 S 
ATOM      2  O   IPH A   1      -0.451   1.264   0.044  0.00  0.00    -0.671 OA
ENDROOT
BRANCH   1   3
ATOM      3  S2  IPH A   1       2.182  -0.094   0.044  0.00  0.00     0.103 SA
BRANCH   3   4
ATOM      4  C2  IPH A   1       2.901   0.888   1.424  0.00  0.00     0.156 C 
BRANCH   4   5
ATOM      5  C4  IPH A   1       4.254   0.320   1.664  0.00  0.00    -0.019 C 
ATOM      6  C6  IPH A   1       5.364   0.870   1.172  0.00  0.00     0.005 C 
ENDBRANCH   4   5
ENDBRANCH   3   4
ENDBRANCH   1   3
BRANCH   1   7
ATOM      7  C1  IPH A   1      -0.313  -0.722   1.726  0.00  0.00     0.327 C 
BRANCH   7   8
ATOM      8  C3  IPH A   1       0.187  -2.109   1.889  0.00  0.00     0.021 C 
ATOM      9  C5  IPH A   1       1.214  -2.425   2.679  0.00  0.00     0.009 C 
ENDBRANCH   7   8
ENDBRANCH   1   7
TORSDOF 5
