@<TRIPOS>MOLECULE
esquisandrinaPM7.pdb
63 65 1 0 0
SMALL
AMBER ff14SB


@<TRIPOS>ATOM
      1 O1          0.7600    0.2040    0.3250 O.3       1 HET   -0.3896
      2 O2          7.6220    0.2040    0.3250 O.3       1 HET   -0.3459
      3 O3          6.5720    3.0890    0.3250 O.3       1 HET   -0.3459
      4 O4          5.4170   -0.9030   -3.8860 O.3       1 HET   -0.3465
      5 O5          5.4020    3.3230    4.9010 O.3       1 HET   -0.3465
      6 O6          7.8660   -0.8080   -2.3140 O.3       1 HET   -0.3441
      7 O7          6.4250    4.5010    2.7840 O.3       1 HET   -0.3441
      8 C1          2.1150   -0.2290    0.4280 C.3       1 HET    0.0688
      9 C2          2.4460   -0.3080    1.9450 C.3       1 HET   -0.0111
     10 C3          2.8540    0.9300   -0.2910 C.3       1 HET    0.0020
     11 C4          3.9450   -0.5610    2.2100 C.3       1 HET   -0.0217
     12 C5          4.1900    0.5270   -0.8270 C.ar      1 HET   -0.0318
     13 C6          4.6690    0.7430    2.3560 C.ar      1 HET   -0.0342
     14 C7          2.2560   -1.5630   -0.3040 C.3       1 HET   -0.0355
     15 C8          1.6120   -1.3880    2.6420 C.3       1 HET   -0.0594
     16 C9          5.3460    0.6740   -0.0480 C.ar      1 HET    0.0212
     17 C10         5.3050    1.3260    1.2580 C.ar      1 HET    0.0211
     18 C11         4.2810    0.0140   -2.1180 C.ar      1 HET   -0.0249
     19 C12         4.6670    1.3830    3.6000 C.ar      1 HET   -0.0250
     20 C13         6.5690    0.2060   -0.5460 C.ar      1 HET    0.1157
     21 C14         5.9130    2.5840    1.4120 C.ar      1 HET    0.1157
     22 C15         5.5140   -0.4250   -2.6210 C.ar      1 HET    0.1078
     23 C16         5.3010    2.6130    3.7490 C.ar      1 HET    0.1078
     24 C17         6.6610   -0.3700   -1.8200 C.ar      1 HET    0.1358
     25 C18         5.9190    3.2350    2.6450 C.ar      1 HET    0.1358
     26 C19         8.7480    0.9610   -0.1150 C.3       1 HET    0.0424
     27 C20         6.0420    4.3290   -0.1400 C.3       1 HET    0.0424
     28 C21         6.6230   -1.1560   -4.5960 C.3       1 HET    0.0423
     29 C22         4.7580    2.7750    6.0450 C.3       1 HET    0.0423
     30 C23         8.2870   -2.0250   -1.6930 C.3       1 HET    0.0424
     31 C24         7.8460    4.4940    2.9280 C.3       1 HET    0.0424
     32 H2          2.1610    0.6830    2.3860 H         1 HET    0.0333
     33 H31         2.9420    1.7940    0.4000 H         1 HET    0.0346
     34 H32         2.1940    1.2970   -1.1100 H         1 HET    0.0346
     35 H41         4.3870   -1.1750    1.3990 H         1 HET    0.0320
     36 H42         4.0770   -1.1720    3.1250 H         1 HET    0.0320
     37 H71         1.9710   -1.4560   -1.3590 H         1 HET    0.0260
     38 H72         3.2890   -1.9300   -0.2830 H         1 HET    0.0260
     39 H73         1.6180   -2.3390    0.1270 H         1 HET    0.0260
     40 H81         1.7520   -1.3480    3.7290 H         1 HET    0.0234
     41 H82         0.5400   -1.2560    2.4600 H         1 HET    0.0234
     42 H83         1.8910   -2.3960    2.3150 H         1 HET    0.0234
     43 H1          0.1400   -0.4830    0.6180 H         1 HET    0.2109
     44 H11         3.4000   -0.0570   -2.7540 H         1 HET    0.0655
     45 H12         4.1690    0.9080    4.4380 H         1 HET    0.0655
     46 H191        9.4430    0.8540    0.7260 H         1 HET    0.0536
     47 H192        8.4680    2.0110   -0.2550 H         1 HET    0.0536
     48 H193        9.1730    0.5500   -1.0360 H         1 HET    0.0536
     49 H201        6.1910    5.1220    0.5990 H         1 HET    0.0536
     50 H202        4.9820    4.2200   -0.3900 H         1 HET    0.0536
     51 H203        6.6360    4.5130   -1.0430 H         1 HET    0.0536
     52 H211        7.3030   -0.2980   -4.5520 H         1 HET    0.0536
     53 H212        6.2590   -1.3130   -5.6190 H         1 HET    0.0536
     54 H213        7.1080   -2.0570   -4.2100 H         1 HET    0.0536
     55 H221        5.2000    1.8130    6.3210 H         1 HET    0.0536
     56 H222        3.6790    2.6910    5.8860 H         1 HET    0.0536
     57 H223        4.9740    3.5310    6.8120 H         1 HET    0.0536
     58 H231        9.2340   -2.2400   -2.2000 H         1 HET    0.0536
     59 H232        7.5580   -2.8200   -1.8680 H         1 HET    0.0536
     60 H233        8.4440   -1.8760   -0.6190 H         1 HET    0.0536
     61 H241        8.3200    4.0560    2.0440 H         1 HET    0.0536
     62 H242        8.1340    3.9540    3.8350 H         1 HET    0.0536
     63 H243        8.0840    5.5590    3.0190 H         1 HET    0.0536
@<TRIPOS>BOND
     1    1    8 1
     2    1   43 1
     3    2   20 1
     4    2   26 1
     5    3   21 1
     6    3   27 1
     7    4   22 1
     8    4   28 1
     9    5   23 1
    10    5   29 1
    11    6   24 1
    12    6   30 1
    13    7   25 1
    14    7   31 1
    15    8    9 1
    16    8   10 1
    17    8   14 1
    18    9   11 1
    19    9   15 1
    20    9   32 1
    21   10   12 1
    22   10   33 1
    23   10   34 1
    24   11   13 1
    25   11   35 1
    26   11   36 1
    27   12   16 ar
    28   12   18 ar
    29   13   17 ar
    30   13   19 ar
    31   14   37 1
    32   14   38 1
    33   14   39 1
    34   15   40 1
    35   15   41 1
    36   15   42 1
    37   16   17 1
    38   16   20 ar
    39   17   21 ar
    40   18   22 ar
    41   18   44 1
    42   19   23 ar
    43   19   45 1
    44   20   24 ar
    45   21   25 ar
    46   22   24 ar
    47   23   25 ar
    48   26   46 1
    49   26   47 1
    50   26   48 1
    51   27   49 1
    52   27   50 1
    53   27   51 1
    54   28   52 1
    55   28   53 1
    56   28   54 1
    57   29   55 1
    58   29   56 1
    59   29   57 1
    60   30   58 1
    61   30   59 1
    62   30   60 1
    63   31   61 1
    64   31   62 1
    65   31   63 1
@<TRIPOS>SUBSTRUCTURE
     1 HET     1 RESIDUE           4 A     HET     0 ROOT
