@<TRIPOS>MOLECULE
donepezila.pdb
58 61 1 0 0
SMALL
AMBER ff14SB


@<TRIPOS>ATOM
      1 O1          0.2640    0.1380    0.0810 O.2       1 HET   -0.2939
      2 O2          6.7360    0.1380    0.0810 O.3       1 HET   -0.3466
      3 O3          5.3530    2.2350    0.0810 O.3       1 HET   -0.3466
      4 N          -1.8760   -6.4480    0.9820 N.4       1 HET    0.2499
      5 C1         -0.0610   -4.1200    1.0810 C.3       1 HET   -0.0308
      6 C2          0.1810   -2.6050    1.1300 C.3       1 HET   -0.0395
      7 C3          1.1090   -2.1290    0.0140 C.3       1 HET    0.0267
      8 C4         -0.8840   -4.5690    2.3010 C.3       1 HET   -0.0106
      9 C5         -0.8180   -4.5230   -0.1960 C.3       1 HET   -0.0106
     10 C6         -1.1410   -6.0750    2.2600 C.3       1 HET   -0.0339
     11 C7         -1.0560   -6.0290   -0.2270 C.3       1 HET   -0.0339
     12 C8          2.5650   -2.6470    0.1460 C.3       1 HET   -0.0169
     13 C9          1.2190   -0.5870    0.0760 C.2       1 HET    0.1662
     14 C10         3.4150   -1.4090    0.1280 C.ar      1 HET   -0.0337
     15 C11         2.6430   -0.2460    0.1090 C.ar      1 HET    0.0238
     16 C12        -2.1430   -7.9470    0.9480 C.3       1 HET   -0.0084
     17 C13         4.8040   -1.3530    0.1180 C.ar      1 HET   -0.0251
     18 C14         3.2290    1.0190    0.1000 C.ar      1 HET   -0.0180
     19 C15        -3.0990   -8.2430   -0.1670 C.ar      1 HET   -0.0043
     20 C16         5.4050   -0.0950    0.0970 C.ar      1 HET    0.1050
     21 C17         4.6130    1.0960    0.0960 C.ar      1 HET    0.1055
     22 C18        -4.4390   -7.8680   -0.0380 C.ar      1 HET   -0.0538
     23 C19        -2.6550   -8.9000   -1.3150 C.ar      1 HET   -0.0538
     24 C20        -5.3290   -8.1360   -1.0740 C.ar      1 HET   -0.0618
     25 C21        -3.5520   -9.1710   -2.3470 C.ar      1 HET   -0.0618
     26 C22        -4.8850   -8.7830   -2.2280 C.ar      1 HET   -0.0622
     27 C23         7.5920   -0.9980    0.0130 C.3       1 HET    0.0423
     28 C24         4.6330    3.4620    0.0760 C.3       1 HET    0.0423
     29 H1          0.9300   -4.6380    1.0970 H         1 HET    0.0307
     30 H21        -0.7830   -2.0530    1.0660 H         1 HET    0.0277
     31 H22         0.6100   -2.3220    2.1140 H         1 HET    0.0277
     32 H3          0.6960   -2.3930   -0.9840 H         1 HET    0.0390
     33 H41        -0.3420   -4.3110    3.2390 H         1 HET    0.0324
     34 H42        -1.8310   -3.9950    2.3600 H         1 HET    0.0324
     35 H51        -1.7640   -3.9520   -0.2860 H         1 HET    0.0324
     36 H52        -0.2300   -4.2270   -1.0950 H         1 HET    0.0324
     37 H61        -0.1820   -6.6390    2.3060 H         1 HET    0.0815
     38 H62        -1.7520   -6.3960    3.1350 H         1 HET    0.0815
     39 H71        -0.0930   -6.5860   -0.2320 H         1 HET    0.0815
     40 H72        -1.6070   -6.3290   -1.1520 H         1 HET    0.0815
     41 H81         2.7180   -3.2140    1.0810 H         1 HET    0.0324
     42 H82         2.8290   -3.3290   -0.6800 H         1 HET    0.0324
     43 H121       -1.1790   -8.4970    0.8380 H         1 HET    0.0869
     44 H122       -2.5700   -8.2660    1.9300 H         1 HET    0.0869
     45 H13         5.3920   -2.2630    0.1210 H         1 HET    0.0655
     46 H14         2.5950    1.9050    0.0950 H         1 HET    0.0659
     47 H18        -4.8020   -7.3900    0.8700 H         1 HET    0.0628
     48 H19        -1.6170   -9.2180   -1.4040 H         1 HET    0.0628
     49 H20        -6.3790   -7.8460   -0.9800 H         1 HET    0.0623
     50 H21        -3.2090   -9.6930   -3.2430 H         1 HET    0.0623
     51 H22        -5.5890   -8.9980   -3.0380 H         1 HET    0.0623
     52 H231        8.5860   -0.5240    0.0210 H         1 HET    0.0536
     53 H232        7.4690   -1.6390    0.8900 H         1 HET    0.0536
     54 H233        7.4400   -1.5500   -0.9200 H         1 HET    0.0536
     55 H241        5.4490    4.1970    0.0010 H         1 HET    0.0536
     56 H242        3.9740    3.5370   -0.7940 H         1 HET    0.0536
     57 H243        4.0850    3.5940    1.0150 H         1 HET    0.0536
     58 H          -2.7940   -5.9340    0.9510 H         1 HET    0.2005
@<TRIPOS>BOND
     1    1   13 2
     2    2   20 1
     3    2   27 1
     4    3   21 1
     5    3   28 1
     6    4   10 1
     7    4   11 1
     8    4   16 1
     9    4   58 1
    10    5    6 1
    11    5    8 1
    12    5    9 1
    13    5   29 1
    14    6    7 1
    15    6   30 1
    16    6   31 1
    17    7   12 1
    18    7   13 1
    19    7   32 1
    20    8   10 1
    21    8   33 1
    22    8   34 1
    23    9   11 1
    24    9   35 1
    25    9   36 1
    26   10   37 1
    27   10   38 1
    28   11   39 1
    29   11   40 1
    30   12   14 1
    31   12   41 1
    32   12   42 1
    33   13   15 1
    34   14   15 ar
    35   14   17 ar
    36   15   18 ar
    37   16   19 1
    38   16   43 1
    39   16   44 1
    40   17   20 ar
    41   17   45 1
    42   18   21 ar
    43   18   46 1
    44   19   22 ar
    45   19   23 ar
    46   20   21 ar
    47   22   24 ar
    48   22   47 1
    49   23   25 ar
    50   23   48 1
    51   24   26 ar
    52   24   49 1
    53   25   26 ar
    54   25   50 1
    55   26   51 1
    56   27   52 1
    57   27   53 1
    58   27   54 1
    59   28   55 1
    60   28   56 1
    61   28   57 1
@<TRIPOS>SUBSTRUCTURE
     1 HET     1 RESIDUE           4 A     HET     0 ROOT
