@<TRIPOS>MOLECULE
berberinaPM7.pdb
43 47 1 0 0
SMALL
AMBER ff14SB


@<TRIPOS>ATOM
      1 O1          0.0000    0.0000    0.0000 O.3       1 HET   -0.3160
      2 O2          2.2300    0.0000    0.0000 O.3       1 HET   -0.3160
      3 O3          3.3870    9.9130    0.0000 O.3       1 HET   -0.3459
      4 O4          6.1660   10.2310   -0.5500 O.3       1 HET   -0.3466
      5 N           1.7660    6.1210    0.2780 N.ar      1 HET   -0.3057
      6 C1          0.3680    5.9680    0.7270 C.3       1 HET    0.0201
      7 C2         -0.3410    4.9630   -0.1630 C.3       1 HET   -0.0109
      8 C3          2.5120    5.0040   -0.0280 C.ar      1 HET    0.0408
      9 C4          0.4040    3.6560   -0.0700 C.ar      1 HET   -0.0345
     10 C5          1.8330    3.6670   -0.0430 C.ar      1 HET    0.0020
     11 C6          2.3090    7.3710    0.2080 C.ar      1 HET    0.0064
     12 C7          3.8720    5.1480   -0.3540 C.ar      1 HET   -0.0320
     13 C8          3.6590    7.5580   -0.1350 C.ar      1 HET    0.0288
     14 C9          4.4480    6.4210   -0.4000 C.ar      1 HET   -0.0124
     15 C10        -0.3010    2.4340   -0.0400 C.ar      1 HET   -0.0250
     16 C11         2.5350    2.4370   -0.0290 C.ar      1 HET   -0.0195
     17 C12         0.4410    1.2600   -0.0160 C.ar      1 HET    0.1087
     18 C13         1.7900    1.2610   -0.0170 C.ar      1 HET    0.1090
     19 C14         4.2200    8.8540   -0.2160 C.ar      1 HET    0.1138
     20 C15         5.7990    6.5730   -0.7210 C.ar      1 HET   -0.0515
     21 C16         5.6010    8.9950   -0.5220 C.ar      1 HET    0.1054
     22 C17         1.1140   -0.8340    0.0080 C.3       1 HET    0.1585
     23 C18         6.3720    7.8410   -0.7700 C.ar      1 HET   -0.0285
     24 C19         3.5710   11.2330   -0.3530 C.3       1 HET    0.0424
     25 C20         7.5100   10.5170   -0.6830 C.3       1 HET    0.0423
     26 H11        -0.1710    6.9410    0.7410 H         1 HET    0.0476
     27 H12         0.3610    5.5650    1.7650 H         1 HET    0.0476
     28 H21        -0.2860    5.3450   -1.2060 H         1 HET    0.0333
     29 H22        -1.4100    4.8440    0.1170 H         1 HET    0.0333
     30 H6          1.6920    8.2310    0.4440 H         1 HET    0.0800
     31 H7          4.4830    4.2890   -0.5970 H         1 HET    0.0650
     32 H10        -1.3830    2.4020   -0.0560 H         1 HET    0.0655
     33 H11         3.6130    2.3760   -0.0130 H         1 HET    0.0659
     34 H15         6.4190    5.7090   -0.9280 H         1 HET    0.0630
     35 H171        1.1130   -1.4790   -0.8960 H         1 HET    0.0893
     36 H172        1.1140   -1.4610    0.9240 H         1 HET    0.0893
     37 H18         7.4250    7.9110   -1.0070 H         1 HET    0.0652
     38 H191        2.6650   11.8050   -0.0690 H         1 HET    0.0536
     39 H192        3.6950   11.3090   -1.4550 H         1 HET    0.0536
     40 H193        4.4320   11.6840    0.1780 H         1 HET    0.0536
     41 H201        7.8920   10.1490   -1.6580 H         1 HET    0.0536
     42 H202        8.0800   10.0550    0.1520 H         1 HET    0.0536
     43 H203        7.6530   11.6160   -0.6370 H         1 HET    0.0536
@<TRIPOS>BOND
     1    1   17 1
     2    1   22 1
     3    2   18 1
     4    2   22 1
     5    3   19 1
     6    3   24 1
     7    4   21 1
     8    4   25 1
     9    5    6 1
    10    5    8 ar
    11    5   11 ar
    12    6    7 1
    13    6   26 1
    14    6   27 1
    15    7    9 1
    16    7   28 1
    17    7   29 1
    18    8   10 1
    19    8   12 ar
    20    9   10 ar
    21    9   15 ar
    22   10   16 ar
    23   11   13 ar
    24   11   30 1
    25   12   14 ar
    26   12   31 1
    27   13   14 ar
    28   13   19 ar
    29   14   20 ar
    30   15   17 ar
    31   15   32 1
    32   16   18 ar
    33   16   33 1
    34   17   18 ar
    35   19   21 ar
    36   20   23 ar
    37   20   34 1
    38   21   23 ar
    39   22   35 1
    40   22   36 1
    41   23   37 1
    42   24   38 1
    43   24   39 1
    44   24   40 1
    45   25   41 1
    46   25   42 1
    47   25   43 1
@<TRIPOS>SUBSTRUCTURE
     1 HET     1 RESIDUE           4 A     HET     0 ROOT
