REMARK  1 active torsions:
REMARK  status: ('A' for Active; 'I' for Inactive)
REMARK    1  A    between atoms: C11_14  and  C15_18 
ROOT
ATOM      1  O1  HET A   1      -0.014   0.064  -0.031  0.00  0.00    -0.299 OA
ATOM      2  C1  HET A   1       1.887  -0.842  -1.237  0.00  0.00     0.048 C 
ATOM      3  C2  HET A   1       1.925  -1.485  -2.649  0.00  0.00     0.007 C 
ATOM      4  C3  HET A   1       2.456  -1.939  -0.248  0.00  0.00    -0.001 C 
ATOM      5  C4  HET A   1       2.801   0.407  -1.014  0.00  0.00     0.032 C 
ATOM      6  C5  HET A   1       2.774  -2.759  -2.526  0.00  0.00     0.006 C 
ATOM      7  C6  HET A   1       2.591  -3.234  -1.078  0.00  0.00     0.012 C 
ATOM      8  C7  HET A   1       0.456  -1.801  -3.041  0.00  0.00    -0.003 C 
ATOM      9  C8  HET A   1       0.443  -0.481  -1.001  0.00  0.00     0.141 C 
ATOM     10  C9  HET A   1      -0.419  -0.870  -2.187  0.00  0.00     0.080 C 
ATOM     11  C10 HET A   1       3.812  -1.396   0.134  0.00  0.00    -0.014 C 
ATOM     12  C11 HET A   1       4.008  -0.149  -0.304  0.00  0.00    -0.025 C 
ATOM     13  C12 HET A   1       1.597  -2.153   0.994  0.00  0.00     0.017 C 
ATOM     14  C13 HET A   1       3.165   1.195  -2.265  0.00  0.00     0.014 C 
ATOM     15  C14 HET A   1       0.218  -1.602  -4.536  0.00  0.00     0.008 C 
ENDROOT
BRANCH  12  16
ATOM     16  C15 HET A   1       5.266   0.696  -0.099  0.00  0.00     0.067 C 
ATOM     17  O2  HET A   1       6.326   0.064  -0.031  0.00  0.00    -0.545 OA
ATOM     18  O3  HET A   1       5.084   1.919  -0.031  0.00  0.00    -0.545 OA
ENDBRANCH  12  16
TORSDOF 1
