356662
  -OEChem-08292522323D

 48 52  0     0  0  0  0  0  0999 V2000
    4.3412    2.3544    0.0900 O   0  0  0  0  0  0  0  0  0  0  0  0
    5.9976    0.6112    0.1198 O   0  0  0  0  0  0  0  0  0  0  0  0
    2.7698   -2.8650    0.0925 O   0  0  0  0  0  0  0  0  0  0  0  0
   -4.9887    1.8668   -0.0269 O   0  0  0  0  0  0  0  0  0  0  0  0
   -5.8779   -0.7600   -0.0255 O   0  0  0  0  0  0  0  0  0  0  0  0
    0.1534    1.5405    0.0394 N   0  3  0  0  0  0  0  0  0  0  0  0
   -0.3444    0.2861    0.0390 C   0  0  0  0  0  0  0  0  0  0  0  0
    0.5829   -0.7953    0.0561 C   0  0  0  0  0  0  0  0  0  0  0  0
    1.9925   -0.5222    0.0731 C   0  0  0  0  0  0  0  0  0  0  0  0
    2.4125    0.8263    0.0721 C   0  0  0  0  0  0  0  0  0  0  0  0
   -1.7596    0.0698    0.0221 C   0  0  0  0  0  0  0  0  0  0  0  0
    1.4561    1.8321    0.0549 C   0  0  0  0  0  0  0  0  0  0  0  0
    3.7770    1.1114    0.0885 C   0  0  0  0  0  0  0  0  0  0  0  0
   -2.2414   -1.2599    0.0224 C   0  0  0  0  0  0  0  0  0  0  0  0
    3.0159   -1.5208    0.0909 C   0  0  0  0  0  0  0  0  0  0  0  0
    0.0407   -2.0954    0.0554 C   0  0  0  0  0  0  0  0  0  0  0  0
    4.7288    0.1216    0.1058 C   0  0  0  0  0  0  0  0  0  0  0  0
   -1.3362   -2.3224    0.0390 C   0  0  0  0  0  0  0  0  0  0  0  0
    4.3799   -1.2063    0.1073 C   0  0  0  0  0  0  0  0  0  0  0  0
   -2.7272    1.1049    0.0047 C   0  0  0  0  0  0  0  0  0  0  0  0
   -0.5970    2.7952    0.0287 C   0  0  0  0  0  0  0  0  0  0  0  0
   -3.6229   -1.5186    0.0063 C   0  0  0  0  0  0  0  0  0  0  0  0
   -4.0982    0.8350   -0.0111 C   0  0  0  0  0  0  0  0  0  0  0  0
   -4.5461   -0.4774   -0.0103 C   0  0  0  0  0  0  0  0  0  0  0  0
    5.7444    2.0288    0.1099 C   0  0  0  0  0  0  0  0  0  0  0  0
    2.6715   -3.5030   -1.1771 C   0  0  0  0  0  0  0  0  0  0  0  0
   -5.3962    2.3508   -1.3047 C   0  0  0  0  0  0  0  0  0  0  0  0
   -6.5284   -0.8884    1.2377 C   0  0  0  0  0  0  0  0  0  0  0  0
    1.7726    2.8713    0.0539 H   0  0  0  0  0  0  0  0  0  0  0  0
    0.6213   -2.9999    0.1306 H   0  0  0  0  0  0  0  0  0  0  0  0
   -1.6916   -3.3515    0.0527 H   0  0  0  0  0  0  0  0  0  0  0  0
    5.1392   -1.9813    0.1222 H   0  0  0  0  0  0  0  0  0  0  0  0
   -2.5900    2.1633    0.0041 H   0  0  0  0  0  0  0  0  0  0  0  0
   -1.1529    2.8803    0.9669 H   0  0  0  0  0  0  0  0  0  0  0  0
    0.0482    3.6826    0.0360 H   0  0  0  0  0  0  0  0  0  0  0  0
   -1.1292    2.8781   -0.9234 H   0  0  0  0  0  0  0  0  0  0  0  0
   -3.9868   -2.5452    0.0058 H   0  0  0  0  0  0  0  0  0  0  0  0
    6.1955    2.4731    1.0045 H   0  0  0  0  0  0  0  0  0  0  0  0
    6.2188    2.4647   -0.7768 H   0  0  0  0  0  0  0  0  0  0  0  0
    2.1993   -4.4799   -1.0400 H   0  0  0  0  0  0  0  0  0  0  0  0
    3.6739   -3.6605   -1.5880 H   0  0  0  0  0  0  0  0  0  0  0  0
    2.0770   -2.9174   -1.8862 H   0  0  0  0  0  0  0  0  0  0  0  0
   -4.5360    2.7369   -1.8609 H   0  0  0  0  0  0  0  0  0  0  0  0
   -6.1078    3.1666   -1.1511 H   0  0  0  0  0  0  0  0  0  0  0  0
   -5.8896    1.5593   -1.8775 H   0  0  0  0  0  0  0  0  0  0  0  0
   -7.5846   -1.1069    1.0583 H   0  0  0  0  0  0  0  0  0  0  0  0
   -6.4554    0.0445    1.8054 H   0  0  0  0  0  0  0  0  0  0  0  0
   -6.0926   -1.7127    1.8111 H   0  0  0  0  0  0  0  0  0  0  0  0
  1 13  1  0  0  0  0
  1 25  1  0  0  0  0
  2 17  1  0  0  0  0
  2 25  1  0  0  0  0
  3 15  1  0  0  0  0
  3 26  1  0  0  0  0
  4 23  1  0  0  0  0
  4 27  1  0  0  0  0
  5 24  1  0  0  0  0
  5 28  1  0  0  0  0
  6  7  1  0  0  0  0
  6 12  2  0  0  0  0
  6 21  1  0  0  0  0
  7  8  2  0  0  0  0
  7 11  1  0  0  0  0
  8  9  1  0  0  0  0
  8 16  1  0  0  0  0
  9 10  1  0  0  0  0
  9 15  2  0  0  0  0
 10 12  1  0  0  0  0
 10 13  2  0  0  0  0
 11 14  1  0  0  0  0
 11 20  2  0  0  0  0
 12 29  1  0  0  0  0
 13 17  1  0  0  0  0
 14 18  1  0  0  0  0
 14 22  2  0  0  0  0
 15 19  1  0  0  0  0
 16 18  2  0  0  0  0
 16 30  1  0  0  0  0
 17 19  2  0  0  0  0
 18 31  1  0  0  0  0
 19 32  1  0  0  0  0
 20 23  1  0  0  0  0
 20 33  1  0  0  0  0
 21 34  1  0  0  0  0
 21 35  1  0  0  0  0
 21 36  1  0  0  0  0
 22 24  1  0  0  0  0
 22 37  1  0  0  0  0
 23 24  2  0  0  0  0
 25 38  1  0  0  0  0
 25 39  1  0  0  0  0
 26 40  1  0  0  0  0
 26 41  1  0  0  0  0
 26 42  1  0  0  0  0
 27 43  1  0  0  0  0
 27 44  1  0  0  0  0
 27 45  1  0  0  0  0
 28 46  1  0  0  0  0
 28 47  1  0  0  0  0
 28 48  1  0  0  0  0
M  CHG  1   6   1
M  END
> <PUBCHEM_COMPOUND_CID>
356662

> <PUBCHEM_CONFORMER_RMSD>
0.8

> <PUBCHEM_CONFORMER_DIVERSEORDER>
2
1

> <PUBCHEM_MMFF94_PARTIAL_CHARGES>
29
1 -0.36
12 0.21
13 0.08
15 0.08
16 -0.15
17 0.08
18 -0.15
19 -0.15
2 -0.36
20 -0.15
21 0.49
22 -0.15
23 0.08
24 0.08
25 0.56
26 0.28
27 0.28
28 0.28
29 0.15
3 -0.36
30 0.15
31 0.15
32 0.15
33 0.15
37 0.15
4 -0.36
5 -0.36
6 -0.21
7 0.36

> <PUBCHEM_EFFECTIVE_ROTOR_COUNT>
3.6

> <PUBCHEM_PHARMACOPHORE_FEATURES>
10
1 1 acceptor
1 2 acceptor
1 3 acceptor
1 4 acceptor
1 5 acceptor
5 1 2 13 17 25 rings
6 11 14 20 22 23 24 rings
6 6 7 8 9 10 12 rings
6 7 8 11 14 16 18 rings
6 9 10 13 15 17 19 rings

> <PUBCHEM_HEAVY_ATOM_COUNT>
28

> <PUBCHEM_ATOM_DEF_STEREO_COUNT>
0

> <PUBCHEM_ATOM_UDEF_STEREO_COUNT>
0

> <PUBCHEM_BOND_DEF_STEREO_COUNT>
0

> <PUBCHEM_BOND_UDEF_STEREO_COUNT>
0

> <PUBCHEM_ISOTOPIC_ATOM_COUNT>
0

> <PUBCHEM_COMPONENT_COUNT>
1

> <PUBCHEM_CACTVS_TAUTO_COUNT>
1

> <PUBCHEM_CONFORMER_ID>
0005713600000002

> <PUBCHEM_MMFF94_ENERGY>
161.1238

> <PUBCHEM_FEATURE_SELFOVERLAP>
50.98

> <PUBCHEM_SHAPE_FINGERPRINT>
10 15 18188206632469711624
10411042 1 17691124834424112326
10616163 171 18339361976249593846
10835480 77 18336820906009484741
10906281 52 18263943166406587770
10967382 1 18411136939848382082
11578080 2 17097195144282829878
12107183 9 17694511346852061977
12236239 1 17846785126365927531
12403259 415 18334579006221335167
12730499 353 18412269445415172954
12788726 201 17489594411200865736
12838862 33 18267848627477011688
13073987 5 18334858299270257001
13140716 1 18194690263285312683
13402501 40 18409729577406508641
14341114 176 18409737270299733771
14617045 38 18411426141365626798
14790565 3 18410295813005104313
15081414 286 18412833464456605313
15196674 1 18410009922817324441
1601671 61 18411134753609918608
17492 89 18195809574602248210
1813 80 17095526183946517717
18608769 82 18264210386761824971
18681886 176 18339639066497381144
19591789 44 18266177240821748515
20642791 178 17828209019006472964
20715895 44 18191297187445260677
21033648 29 18339347648175644745
21197605 99 18339647857478187099
21236236 1 18409727366252933085
21267235 1 18410863148652663954
21279426 13 18337953372567258589
21421861 104 17969209063313372418
22149856 69 18339942462728402969
23559900 14 18269834229581314310
239999 70 18201445753395779822
3004659 81 18261392213794552058
335352 9 18339080500787262052
34797466 226 17846508070678566460
34934 24 18411132545991375682
350125 39 18410576227942245681
3545911 37 18411420639180165842
3680242 22 18262232223398194594
4073 2 17968382341589607427
4093350 32 17131845230560514151
5104073 3 18334580088547806641
5265222 85 18122354738215260140
5283173 99 18261105223732252021
59755656 215 18410015416824496238
9709674 26 18411424973071881350

> <PUBCHEM_SHAPE_MULTIPOLES>
541.9
13.68
3.3
0.78
6.12
0.71
-0.08
-3.74
0.83
-1.46
-0.66
0.58
0.09
1.39

> <PUBCHEM_SHAPE_SELFOVERLAP>
1231.308

> <PUBCHEM_SHAPE_VOLUME>
285.8

> <PUBCHEM_COORDINATE_TYPE>
2
5
10

$$$$
