@<TRIPOS>MOLECULE
sanguirubine.pdb
48 52 1 0 0
SMALL
AMBER ff14SB


@<TRIPOS>ATOM
      1 O1         -0.1290    0.2380    0.0550 O.3       1 HET   -0.3153
      2 O2          2.2110    0.2380    0.0550 O.3       1 HET   -0.3159
      3 O3          2.3390    5.0960    0.0550 O.3       1 HET   -0.3486
      4 O4         -6.2700    7.6170   -0.3110 O.3       1 HET   -0.3466
      5 O5         -4.7490    9.9560   -0.6070 O.3       1 HET   -0.3466
      6 N          -2.5700    3.6920   -0.0300 N.ar      1 HET   -0.3086
      7 C1         -2.0200    4.9910   -0.1000 C.ar      1 HET    0.0483
      8 C2         -0.5970    5.0920   -0.0910 C.ar      1 HET    0.0072
      9 C3          0.2800    3.9430   -0.0000 C.ar      1 HET    0.0252
     10 C4         -0.3830    2.6810    0.0250 C.ar      1 HET    0.0322
     11 C5         -2.8090    6.2090   -0.1970 C.ar      1 HET    0.0066
     12 C6         -1.7960    2.6140    0.0040 C.ar      1 HET    0.0062
     13 C7          0.3610    1.5150    0.0420 C.ar      1 HET    0.1177
     14 C8         -2.1580    7.4600   -0.3340 C.ar      1 HET   -0.0137
     15 C9          1.7070    3.9080    0.0460 C.ar      1 HET    0.0859
     16 C10        -0.0060    6.3760   -0.2020 C.ar      1 HET   -0.0517
     17 C11         1.7690    1.5240    0.0540 C.ar      1 HET    0.1117
     18 C12        -0.7300    7.5240   -0.3300 C.ar      1 HET   -0.0535
     19 C13         2.4590    2.7140    0.0740 C.ar      1 HET    0.0021
     20 C14        -4.2330    6.3020   -0.1720 C.ar      1 HET   -0.0193
     21 C15        -4.0100    3.4240   -0.0320 C.3       1 HET    0.0047
     22 C16        -2.8430    8.6900   -0.4880 C.ar      1 HET   -0.0212
     23 C17        -4.9200    7.4880   -0.3210 C.ar      1 HET    0.1054
     24 C18        -4.2250    8.7220   -0.4880 C.ar      1 HET    0.1054
     25 C19         1.0460   -0.6130    0.0400 C.3       1 HET    0.1585
     26 C20         3.7550    5.1780    0.1430 C.3       1 HET    0.0422
     27 C21        -7.0780    6.4760   -0.0790 C.3       1 HET    0.0423
     28 C22        -6.1500   10.1320   -0.7520 C.3       1 HET    0.0423
     29 H6         -2.2450    1.5990    0.0420 H         1 HET    0.0799
     30 H10         1.0850    6.4850   -0.2040 H         1 HET    0.0630
     31 H12        -0.2480    8.5020   -0.4270 H         1 HET    0.0630
     32 H13         3.5490    2.7410    0.1050 H         1 HET    0.0680
     33 H14        -4.8560    5.4340   -0.0230 H         1 HET    0.0659
     34 H151       -4.5000    3.8210   -0.9490 H         1 HET    0.0436
     35 H152       -4.2540    2.3400   -0.0160 H         1 HET    0.0436
     36 H153       -4.5010    3.8530    0.8700 H         1 HET    0.0436
     37 H16        -2.2900    9.6270   -0.6030 H         1 HET    0.0658
     38 H191        1.0330   -1.1770   -0.9060 H         1 HET    0.0893
     39 H192        1.0270   -1.2130    0.9640 H         1 HET    0.0893
     40 H201        3.9230    6.2680    0.1460 H         1 HET    0.0535
     41 H202        4.2370    4.7240   -0.7310 H         1 HET    0.0535
     42 H203        4.1340    4.7400    1.0750 H         1 HET    0.0535
     43 H211       -6.9620    5.7210   -0.8640 H         1 HET    0.0536
     44 H212       -8.0990    6.8920   -0.1140 H         1 HET    0.0536
     45 H213       -6.8870    6.0460    0.9110 H         1 HET    0.0536
     46 H221       -6.2390   11.2220   -0.8830 H         1 HET    0.0536
     47 H222       -6.6860    9.8120    0.1500 H         1 HET    0.0536
     48 H223       -6.5410    9.6100   -1.6330 H         1 HET    0.0536
@<TRIPOS>BOND
     1    1   13 1
     2    1   25 1
     3    2   17 1
     4    2   25 1
     5    3   15 1
     6    3   26 1
     7    4   23 1
     8    4   27 1
     9    5   24 1
    10    5   28 1
    11    6    7 ar
    12    6   12 ar
    13    6   21 1
    14    7    8 ar
    15    7   11 ar
    16    8    9 ar
    17    8   16 ar
    18    9   10 ar
    19    9   15 ar
    20   10   12 ar
    21   10   13 ar
    22   11   14 ar
    23   11   20 ar
    24   12   29 1
    25   13   17 ar
    26   14   18 ar
    27   14   22 ar
    28   15   19 ar
    29   16   18 ar
    30   16   30 1
    31   17   19 ar
    32   18   31 1
    33   19   32 1
    34   20   23 ar
    35   20   33 1
    36   21   34 1
    37   21   35 1
    38   21   36 1
    39   22   24 ar
    40   22   37 1
    41   23   24 ar
    42   25   38 1
    43   25   39 1
    44   26   40 1
    45   26   41 1
    46   26   42 1
    47   27   43 1
    48   27   44 1
    49   27   45 1
    50   28   46 1
    51   28   47 1
    52   28   48 1
@<TRIPOS>SUBSTRUCTURE
     1 HET     1 RESIDUE           4 A     HET     0 ROOT
