REMARK  0 active torsions:
REMARK  status: ('A' for Active; 'I' for Inactive)
ROOT
ATOM      1  N   HET A   1      -0.090  -0.106  -0.067  0.00  0.00    -0.306 N 
ATOM      2  C1  HET A   1       1.395  -0.106  -0.067  0.00  0.00     0.115 C 
ATOM      3  C2  HET A   1       1.920   1.334  -0.067  0.00  0.00     0.056 C 
ATOM      4  C3  HET A   1      -0.763   0.837  -0.848  0.00  0.00     0.041 A 
ATOM      5  C4  HET A   1       1.354   2.064  -1.242  0.00  0.00    -0.037 A 
ATOM      6  C5  HET A   1       0.038   1.772  -1.638  0.00  0.00    -0.001 A 
ATOM      7  C6  HET A   1      -0.755  -0.999   0.685  0.00  0.00     0.084 A 
ATOM      8  C7  HET A   1      -2.143   0.860  -0.820  0.00  0.00     0.033 A 
ATOM      9  C8  HET A   1      -2.166  -1.021   0.719  0.00  0.00    -0.004 A 
ATOM     10  C9  HET A   1      -2.882  -0.065  -0.047  0.00  0.00    -0.015 A 
ATOM     11  C10 HET A   1       2.105   3.003  -1.942  0.00  0.00     0.004 A 
ATOM     12  C11 HET A   1      -0.494   2.392  -2.773  0.00  0.00     0.010 A 
ATOM     13  C12 HET A   1      -2.877  -1.971   1.506  0.00  0.00     0.010 A 
ATOM     14  C13 HET A   1      -4.301  -0.069  -0.012  0.00  0.00     0.009 A 
ATOM     15  C14 HET A   1       1.558   3.635  -3.058  0.00  0.00     0.000 A 
ATOM     16  C15 HET A   1       0.266   3.321  -3.479  0.00  0.00     0.001 A 
ATOM     17  C16 HET A   1      -4.247  -1.953   1.520  0.00  0.00     0.001 A 
ATOM     18  C17 HET A   1      -4.964  -0.993   0.755  0.00  0.00     0.001 A 
ENDROOT
TORSDOF 0
