@<TRIPOS>MOLECULE
chaconinaPM7.pdb
133 141 1 0 0
SMALL
AMBER ff14SB


@<TRIPOS>ATOM
      1 O1          1.4440    2.5590    0.9080 O.3       1 HET   -0.3463
      2 O2          3.7040    2.5590    0.9080 O.3       1 HET   -0.3414
      3 O3          2.1410    5.6550    0.9080 O.3       1 HET   -0.3385
      4 O4          3.0100    5.2410    3.8850 O.3       1 HET   -0.3874
      5 O5          5.6750    4.0560    3.5440 O.3       1 HET   -0.3410
      6 O6          0.0090    6.1620    1.3260 O.3       1 HET   -0.3441
      7 O7          7.1050    2.5170    0.7240 O.3       1 HET   -0.3936
      8 O8          6.5510    5.2100    1.8180 O.3       1 HET   -0.3441
      9 O9          2.8230    8.3870    0.6800 O.3       1 HET   -0.3850
     10 O10         0.9570    9.3590    2.3100 O.3       1 HET   -0.3874
     11 O11         7.5560    5.1870    5.3180 O.3       1 HET   -0.3850
     12 O12        -1.4530    8.2570   -0.1680 O.3       1 HET   -0.3876
     13 O13         8.1260    7.4120    3.9750 O.3       1 HET   -0.3874
     14 O14         9.3830    5.2240    1.3800 O.3       1 HET   -0.3876
     15 N           1.2880   -6.9080   -5.2080 N.4       1 HET   -0.2966
     16 C1          0.2120   -5.1810   -2.6690 C.3       1 HET   -0.0248
     17 C2          0.5940   -6.6620   -2.9300 C.3       1 HET   -0.0160
     18 C3          1.6250   -4.5270   -2.6090 C.3       1 HET   -0.0307
     19 C4          1.8450   -6.5650   -3.8860 C.3       1 HET    0.0138
     20 C5          1.5400   -3.0090   -2.4710 C.3       1 HET   -0.0309
     21 C6          2.3360   -5.0950   -3.8450 C.3       1 HET   -0.0336
     22 C7         -0.4410   -7.5390   -3.6680 C.3       1 HET   -0.0237
     23 C8          0.7790   -2.6760   -1.1640 C.3       1 HET   -0.0288
     24 C9         -0.4540   -4.9300   -1.3110 C.3       1 HET   -0.0469
     25 C10         0.2840   -7.9810   -4.9690 C.3       1 HET    0.0127
     26 C11        -0.5710   -3.4160   -1.0660 C.3       1 HET   -0.0488
     27 C12         0.5980   -1.1330   -1.0210 C.3       1 HET   -0.0083
     28 C13        -0.6510   -4.6160   -3.8010 C.3       1 HET   -0.0590
     29 C14         2.9560   -2.4120   -2.3970 C.3       1 HET   -0.0314
     30 C15        -0.5980   -8.0700   -6.2210 C.3       1 HET   -0.0370
     31 C16         2.2480   -7.3020   -6.2500 C.3       1 HET    0.0013
     32 C17        -0.8680   -8.7460   -2.8360 C.3       1 HET   -0.0607
     33 C18         1.9020   -0.4250   -1.3090 C.2       1 HET   -0.0654
     34 C19         1.4460   -7.4310   -7.5720 C.3       1 HET   -0.0314
     35 C20         0.1560   -0.8530    0.4390 C.3       1 HET   -0.0413
     36 C21         0.2940   -8.4450   -7.4160 C.3       1 HET   -0.0480
     37 C22         2.9390   -0.9990   -1.9300 C.2       1 HET   -0.0844
     38 C23        -0.4520   -0.5890   -2.0050 C.3       1 HET   -0.0556
     39 C24         1.9870    1.0170   -0.9090 C.3       1 HET   -0.0048
     40 C25         0.1700    0.6320    0.7970 C.3       1 HET   -0.0255
     41 C26         1.5810    1.1850    0.5600 C.3       1 HET    0.0645
     42 C27         2.3840   -7.8530   -8.7040 C.3       1 HET   -0.0613
     43 C28         2.5690    3.3790    0.7180 C.3       1 HET    0.1869
     44 C29         2.3570    4.5240    1.7440 C.3       1 HET    0.1400
     45 C30         3.5610    4.8820    2.6310 C.3       1 HET    0.1142
     46 C31         4.8760    3.1940    1.3800 C.3       1 HET    0.1127
     47 C32         4.5390    3.7180    2.7860 C.3       1 HET    0.1179
     48 C33         5.9410    2.0860    1.3880 C.3       1 HET    0.0721
     49 C34         1.3350    6.6470    1.4850 C.3       1 HET    0.1867
     50 C35         1.5170    7.8860    0.5830 C.3       1 HET    0.1333
     51 C36         6.3630    5.2380    3.2190 C.3       1 HET    0.1866
     52 C37         0.5120    8.9680    1.0210 C.3       1 HET    0.1132
     53 C38        -1.0120    7.0160    1.7660 C.3       1 HET    0.0865
     54 C39         7.7260    5.1000    3.9310 C.3       1 HET    0.1333
     55 C40        -0.9280    8.4250    1.1320 C.3       1 HET    0.1085
     56 C41         8.6740    6.2160    3.4450 C.3       1 HET    0.1132
     57 C42         7.3050    6.2550    1.2550 C.3       1 HET    0.0865
     58 C43         8.7020    6.3420    1.9070 C.3       1 HET    0.1085
     59 C44        -1.0420    7.1050    3.2880 C.3       1 HET   -0.0359
     60 C45         6.5560    7.5770    1.3170 C.3       1 HET   -0.0359
     61 H2          0.8890   -7.1390   -1.9750 H         1 HET    0.0328
     62 H3          2.1520   -4.9190   -1.7020 H         1 HET    0.0312
     63 H41         2.6470   -7.2570   -3.5570 H         1 HET    0.0471
     64 H5          1.0060   -2.5670   -3.3410 H         1 HET    0.0312
     65 H61         3.4280   -5.0270   -3.7750 H         1 HET    0.0286
     66 H62         2.0390   -4.5570   -4.7630 H         1 HET    0.0286
     67 H71        -1.3450   -6.9470   -3.9280 H         1 HET    0.0320
     68 H8          1.4180   -3.0210   -0.3140 H         1 HET    0.0315
     69 H91        -1.4540   -5.3960   -1.2800 H         1 HET    0.0272
     70 H92         0.1270   -5.4030   -0.4990 H         1 HET    0.0272
     71 H101        0.7730   -8.9740   -4.7980 H         1 HET    0.0470
     72 H111       -1.2900   -2.9920   -1.7920 H         1 HET    0.0270
     73 H112       -1.0120   -3.2440   -0.0670 H         1 HET    0.0270
     74 H131       -0.2650   -4.9370   -4.7820 H         1 HET    0.0236
     75 H132       -1.6880   -4.9540   -3.7240 H         1 HET    0.0236
     76 H133       -0.6650   -3.5220   -3.8030 H         1 HET    0.0236
     77 H141        3.5920   -3.0140   -1.7150 H         1 HET    0.0313
     78 H142        3.4370   -2.4850   -3.3940 H         1 HET    0.0313
     79 H151       -1.0930   -7.0980   -6.4050 H         1 HET    0.0283
     80 H152       -1.3980   -8.8140   -6.0790 H         1 HET    0.0283
     81 H161        3.0130   -6.5030   -6.3470 H         1 HET    0.0434
     82 H162        2.7840   -8.2460   -6.0260 H         1 HET    0.0434
     83 H171       -0.0140   -9.3660   -2.5430 H         1 HET    0.0234
     84 H172       -1.3760   -8.4290   -1.9170 H         1 HET    0.0234
     85 H173       -1.5630   -9.3840   -3.3930 H         1 HET    0.0234
     86 H19         1.0050   -6.4310   -7.8030 H         1 HET    0.0313
     87 H201        0.8210   -1.4040    1.1330 H         1 HET    0.0276
     88 H202       -0.8590   -1.2600    0.6020 H         1 HET    0.0276
     89 H211       -0.3060   -8.4740   -8.3420 H         1 HET    0.0270
     90 H212        0.7000   -9.4630   -7.2810 H         1 HET    0.0270
     91 H22         3.8590   -0.4500   -2.1230 H         1 HET    0.0576
     92 H231       -1.4540   -0.9650   -1.7810 H         1 HET    0.0239
     93 H232       -0.2070   -0.8670   -3.0360 H         1 HET    0.0239
     94 H233       -0.5040    0.5050   -1.9660 H         1 HET    0.0239
     95 H241        3.0110    1.4180   -1.0630 H         1 HET    0.0340
     96 H242        1.3290    1.6330   -1.5550 H         1 HET    0.0340
     97 H251       -0.5660    1.1970    0.1950 H         1 HET    0.0294
     98 H252       -0.1280    0.7890    1.8500 H         1 HET    0.0294
     99 H26         2.3250    0.7220    1.2430 H         1 HET    0.0608
    100 H271        3.1820   -7.1180   -8.8550 H         1 HET    0.0234
    101 H272        1.8430   -7.9470   -9.6520 H         1 HET    0.0234
    102 H273        2.8580   -8.8190   -8.5000 H         1 HET    0.0234
    103 H28         2.5920    3.7430   -0.3340 H         1 HET    0.0953
    104 H29         1.4560    4.3050    2.3700 H         1 HET    0.0688
    105 H30         4.0660    5.7940    2.2240 H         1 HET    0.0659
    106 H31         5.1610    4.0060    0.6710 H         1 HET    0.0658
    107 H32         4.1080    2.9020    3.4220 H         1 HET    0.0662
    108 H331        5.6120    1.2080    0.7960 H         1 HET    0.0592
    109 H332        6.2080    1.7680    2.4110 H         1 HET    0.0592
    110 H34         1.5700    6.8130    2.5560 H         1 HET    0.0953
    111 H42         3.6820    5.1460    4.5920 H         1 HET    0.2107
    112 H35         1.4060    7.6200   -0.4940 H         1 HET    0.0684
    113 H36         5.7810    6.1310    3.5190 H         1 HET    0.0953
    114 H72         7.4270    3.3630    1.1130 H         1 HET    0.2102
    115 H37         0.5650    9.8440    0.3390 H         1 HET    0.0659
    116 H38        -1.9100    6.4790    1.3610 H         1 HET    0.0630
    117 H39         8.1610    4.0850    3.7720 H         1 HET    0.0684
    118 H40        -1.5700    9.1380    1.6940 H         1 HET    0.0657
    119 H41         9.6940    6.0540    3.8540 H         1 HET    0.0659
    120 H9          2.9920    8.7230    1.5890 H         1 HET    0.2109
    121 H42         7.4040    5.8820    0.2010 H         1 HET    0.0630
    122 H43         9.2190    7.2770    1.6000 H         1 HET    0.0657
    123 H441       -0.2420    7.7460    3.6810 H         1 HET    0.0258
    124 H442       -1.9970    7.4860    3.6580 H         1 HET    0.0258
    125 H443       -0.8900    6.1070    3.7270 H         1 HET    0.0258
    126 H102        0.5160   10.1780    2.6020 H         1 HET    0.2107
    127 H11         7.3520    6.1150    5.5790 H         1 HET    0.2109
    128 H12        -1.5830    9.1180   -0.6110 H         1 HET    0.2107
    129 H451        5.5030    7.4410    1.0200 H         1 HET    0.0258
    130 H452        6.9830    8.3160    0.6310 H         1 HET    0.0258
    131 H453        6.5600    8.0160    2.3220 H         1 HET    0.0258
    132 H13         8.8280    8.0560    4.1860 H         1 HET    0.2107
    133 H14        10.3350    5.2440    1.5980 H         1 HET    0.2107
@<TRIPOS>BOND
     1    1   41 1
     2    1   43 1
     3    2   43 1
     4    2   46 1
     5    3   44 1
     6    3   49 1
     7    4   45 1
     8    4  111 1
     9    5   47 1
    10    5   51 1
    11    6   49 1
    12    6   53 1
    13    7   48 1
    14    7  114 1
    15    8   51 1
    16    8   57 1
    17    9   50 1
    18    9  120 1
    19   10   52 1
    20   10  126 1
    21   11   54 1
    22   11  127 1
    23   12   55 1
    24   12  128 1
    25   13   56 1
    26   13  132 1
    27   14   58 1
    28   14  133 1
    29   15   19 1
    30   15   25 1
    31   15   31 1
    32   16   17 1
    33   16   18 1
    34   16   24 1
    35   16   28 1
    36   17   19 1
    37   17   22 1
    38   17   61 1
    39   18   20 1
    40   18   21 1
    41   18   62 1
    42   19   21 1
    43   19   63 1
    44   20   23 1
    45   20   29 1
    46   20   64 1
    47   21   65 1
    48   21   66 1
    49   22   25 1
    50   22   32 1
    51   22   67 1
    52   23   26 1
    53   23   27 1
    54   23   68 1
    55   24   26 1
    56   24   69 1
    57   24   70 1
    58   25   30 1
    59   25   71 1
    60   26   72 1
    61   26   73 1
    62   27   33 1
    63   27   35 1
    64   27   38 1
    65   28   74 1
    66   28   75 1
    67   28   76 1
    68   29   37 1
    69   29   77 1
    70   29   78 1
    71   30   36 1
    72   30   79 1
    73   30   80 1
    74   31   34 1
    75   31   81 1
    76   31   82 1
    77   32   83 1
    78   32   84 1
    79   32   85 1
    80   33   37 2
    81   33   39 1
    82   34   36 1
    83   34   42 1
    84   34   86 1
    85   35   40 1
    86   35   87 1
    87   35   88 1
    88   36   89 1
    89   36   90 1
    90   37   91 1
    91   38   92 1
    92   38   93 1
    93   38   94 1
    94   39   41 1
    95   39   95 1
    96   39   96 1
    97   40   41 1
    98   40   97 1
    99   40   98 1
   100   41   99 1
   101   42  100 1
   102   42  101 1
   103   42  102 1
   104   43   44 1
   105   43  103 1
   106   44   45 1
   107   44  104 1
   108   45   47 1
   109   45  105 1
   110   46   47 1
   111   46   48 1
   112   46  106 1
   113   47  107 1
   114   48  108 1
   115   48  109 1
   116   49   50 1
   117   49  110 1
   118   50   52 1
   119   50  112 1
   120   51   54 1
   121   51  113 1
   122   52   55 1
   123   52  115 1
   124   53   55 1
   125   53   59 1
   126   53  116 1
   127   54   56 1
   128   54  117 1
   129   55  118 1
   130   56   58 1
   131   56  119 1
   132   57   58 1
   133   57   60 1
   134   57  121 1
   135   58  122 1
   136   59  123 1
   137   59  124 1
   138   59  125 1
   139   60  129 1
   140   60  130 1
   141   60  131 1
@<TRIPOS>SUBSTRUCTURE
     1 HET     1 RESIDUE           4 A     HET     0 ROOT
