REMARK  7 active torsions:
REMARK  status: ('A' for Active; 'I' for Inactive)
REMARK    1  A    between atoms: O1_1  and  C1_8 
REMARK    2  A    between atoms: O2_2  and  C13_20 
REMARK    3  A    between atoms: O3_3  and  C14_21 
REMARK    4  A    between atoms: O4_4  and  C15_22 
REMARK    5  A    between atoms: O5_5  and  C16_23 
REMARK    6  A    between atoms: O6_6  and  C17_24 
REMARK    7  A    between atoms: O7_7  and  C18_25 
ROOT
ATOM      1  C1  HET A   1       2.115  -0.229   0.428  0.00  0.00     0.069 C 
ATOM      2  C2  HET A   1       2.446  -0.308   1.945  0.00  0.00     0.022 C 
ATOM      3  C3  HET A   1       2.854   0.930  -0.291  0.00  0.00     0.071 C 
ATOM      4  C4  HET A   1       3.945  -0.561   2.210  0.00  0.00     0.042 C 
ATOM      5  C5  HET A   1       4.190   0.527  -0.827  0.00  0.00    -0.032 A 
ATOM      6  C6  HET A   1       4.669   0.743   2.356  0.00  0.00    -0.034 A 
ATOM      7  C7  HET A   1       2.256  -1.563  -0.304  0.00  0.00     0.042 C 
ATOM      8  C8  HET A   1       1.612  -1.388   2.642  0.00  0.00     0.011 C 
ATOM      9  C9  HET A   1       5.346   0.674  -0.048  0.00  0.00     0.021 A 
ATOM     10  C10 HET A   1       5.305   1.326   1.258  0.00  0.00     0.021 A 
ATOM     11  C11 HET A   1       4.281   0.014  -2.118  0.00  0.00     0.041 A 
ATOM     12  C12 HET A   1       4.667   1.383   3.600  0.00  0.00     0.041 A 
ATOM     13  C13 HET A   1       6.569   0.206  -0.546  0.00  0.00     0.116 A 
ATOM     14  C14 HET A   1       5.913   2.584   1.412  0.00  0.00     0.116 A 
ATOM     15  C15 HET A   1       5.514  -0.425  -2.621  0.00  0.00     0.108 A 
ATOM     16  C16 HET A   1       5.301   2.613   3.749  0.00  0.00     0.108 A 
ATOM     17  C17 HET A   1       6.661  -0.370  -1.820  0.00  0.00     0.136 A 
ATOM     18  C18 HET A   1       5.919   3.235   2.645  0.00  0.00     0.136 A 
ENDROOT
BRANCH   1  19
ATOM     19  O1  HET A   1       0.760   0.204   0.325  0.00  0.00    -0.390 OA
ATOM     20  H1  HET A   1       0.140  -0.483   0.618  0.00  0.00     0.211 HD
ENDBRANCH   1  19
BRANCH  13  21
ATOM     21  O2  HET A   1       7.622   0.204   0.325  0.00  0.00    -0.346 OA
ATOM     22  C19 HET A   1       8.748   0.961  -0.115  0.00  0.00     0.203 C 
ENDBRANCH  13  21
BRANCH  15  23
ATOM     23  O4  HET A   1       5.417  -0.903  -3.886  0.00  0.00    -0.346 OA
ATOM     24  C21 HET A   1       6.623  -1.156  -4.596  0.00  0.00     0.203 C 
ENDBRANCH  15  23
BRANCH  14  25
ATOM     25  O3  HET A   1       6.572   3.089   0.325  0.00  0.00    -0.346 OA
ATOM     26  C20 HET A   1       6.042   4.329  -0.140  0.00  0.00     0.203 C 
ENDBRANCH  14  25
BRANCH  16  27
ATOM     27  O5  HET A   1       5.402   3.323   4.901  0.00  0.00    -0.346 OA
ATOM     28  C22 HET A   1       4.758   2.775   6.045  0.00  0.00     0.203 C 
ENDBRANCH  16  27
BRANCH  17  29
ATOM     29  O6  HET A   1       7.866  -0.808  -2.314  0.00  0.00    -0.344 OA
ATOM     30  C23 HET A   1       8.287  -2.025  -1.693  0.00  0.00     0.203 C 
ENDBRANCH  17  29
BRANCH  18  31
ATOM     31  O7  HET A   1       6.425   4.501   2.784  0.00  0.00    -0.344 OA
ATOM     32  C24 HET A   1       7.846   4.494   2.928  0.00  0.00     0.203 C 
ENDBRANCH  18  31
TORSDOF 7
