@<TRIPOS>MOLECULE
esparteinaPM7.pdb
44 47 1 0 0
SMALL
AMBER ff14SB


@<TRIPOS>ATOM
      1 N1          0.2370   -0.0890    0.0070 N.4       1 HET   -0.2994
      2 N2          2.9000   -0.0890    0.0070 N.4       1 HET    0.2493
      3 C1          1.5600    2.0210    0.0070 C.3       1 HET    0.0140
      4 C2          1.5530    0.5690    2.0170 C.3       1 HET    0.0140
      5 C3          0.2700    1.3150   -0.5060 C.3       1 HET    0.0173
      6 C4          2.8150   -0.1810    1.5320 C.3       1 HET   -0.0194
      7 C5          1.5490    2.0250    1.5400 C.3       1 HET   -0.0346
      8 C6          0.2670   -0.1150    1.4970 C.3       1 HET    0.0066
      9 C7          2.8650    1.3490   -0.4640 C.3       1 HET   -0.0298
     10 C8          0.2340    1.3240   -2.0460 C.3       1 HET   -0.0370
     11 C9          4.0970    0.3330    2.1960 C.3       1 HET   -0.0103
     12 C10        -0.9470   -0.8410   -0.4880 C.3       1 HET   -0.0016
     13 C11         4.1140   -0.8180   -0.5110 C.3       1 HET   -0.0342
     14 C12        -0.9950    0.5700   -2.5630 C.3       1 HET   -0.0506
     15 C13         5.3150   -0.4310    1.6700 C.3       1 HET   -0.0431
     16 C14        -0.9680   -0.8600   -2.0220 C.3       1 HET   -0.0403
     17 C15         5.4060   -0.3270    0.1470 C.3       1 HET   -0.0135
     18 H1          1.5510    3.0720   -0.3770 H         1 HET    0.0373
     19 H21         1.5400    0.5390    3.1360 H         1 HET    0.0374
     20 H3         -0.6160    1.8920   -0.1250 H         1 HET    0.0472
     21 H4          2.6980   -1.2760    1.7680 H         1 HET    0.0855
     22 H51         0.6560    2.5590    1.9260 H         1 HET    0.0278
     23 H52         2.4110    2.5880    1.9460 H         1 HET    0.0278
     24 H61         0.2350   -1.1770    1.8270 H         1 HET    0.0436
     25 H62        -0.6240    0.3800    1.9470 H         1 HET    0.0436
     26 H71         2.9400    1.3630   -1.5740 H         1 HET    0.0818
     27 H72         3.7470    1.9050   -0.0740 H         1 HET    0.0818
     28 H81         1.1460    0.8650   -2.4680 H         1 HET    0.0283
     29 H82         0.2200    2.3710   -2.4090 H         1 HET    0.0283
     30 H91         4.0180    0.2080    3.2970 H         1 HET    0.0324
     31 H92         4.2270    1.4210    2.0420 H         1 HET    0.0324
     32 H101       -1.8990   -0.4100   -0.1020 H         1 HET    0.0431
     33 H102       -0.8790   -1.8810   -0.0980 H         1 HET    0.0431
     34 H111        4.1640   -0.6990   -1.6170 H         1 HET    0.0814
     35 H112        3.9730   -1.9080   -0.3140 H         1 HET    0.0814
     36 H121       -1.0040    0.5660   -3.6710 H         1 HET    0.0268
     37 H122       -1.9260    1.0860   -2.2600 H         1 HET    0.0268
     38 H131        5.2750   -1.4930    1.9870 H         1 HET    0.0271
     39 H132        6.2410   -0.0300    2.1350 H         1 HET    0.0271
     40 H141       -1.8540   -1.4260   -2.3750 H         1 HET    0.0280
     41 H142       -0.0880   -1.4040   -2.4130 H         1 HET    0.0280
     42 H151        5.6400    0.7120   -0.1570 H         1 HET    0.0321
     43 H152        6.2620   -0.9320   -0.2260 H         1 HET    0.0321
     44 H22         1.9790   -0.5500   -0.3690 H         1 HET    0.2004
@<TRIPOS>BOND
     1    1    5 1
     2    1    8 1
     3    1   12 1
     4    2    6 1
     5    2    9 1
     6    2   13 1
     7    2   44 1
     8    3    5 1
     9    3    7 1
    10    3    9 1
    11    3   18 1
    12    4    6 1
    13    4    7 1
    14    4    8 1
    15    4   19 1
    16    5   10 1
    17    5   20 1
    18    6   11 1
    19    6   21 1
    20    7   22 1
    21    7   23 1
    22    8   24 1
    23    8   25 1
    24    9   26 1
    25    9   27 1
    26   10   14 1
    27   10   28 1
    28   10   29 1
    29   11   15 1
    30   11   30 1
    31   11   31 1
    32   12   16 1
    33   12   32 1
    34   12   33 1
    35   13   17 1
    36   13   34 1
    37   13   35 1
    38   14   16 1
    39   14   36 1
    40   14   37 1
    41   15   17 1
    42   15   38 1
    43   15   39 1
    44   16   40 1
    45   16   41 1
    46   17   42 1
    47   17   43 1
@<TRIPOS>SUBSTRUCTURE
     1 HET     1 RESIDUE           4 A     HET     0 ROOT
