REMARK  0 active torsions:
REMARK  status: ('A' for Active; 'I' for Inactive)
ROOT
ATOM      1  N1  HET A   1       0.237  -0.089   0.007  0.00  0.00    -0.299 N 
ATOM      2  N2  HET A   1       2.900  -0.089   0.007  0.00  0.00     0.249 N 
ATOM      3  C1  HET A   1       1.560   2.021   0.007  0.00  0.00     0.051 C 
ATOM      4  C2  HET A   1       1.553   0.569   2.017  0.00  0.00     0.051 C 
ATOM      5  C3  HET A   1       0.270   1.315  -0.506  0.00  0.00     0.065 C 
ATOM      6  C4  HET A   1       2.815  -0.181   1.532  0.00  0.00     0.066 C 
ATOM      7  C5  HET A   1       1.549   2.025   1.540  0.00  0.00     0.021 C 
ATOM      8  C6  HET A   1       0.267  -0.115   1.497  0.00  0.00     0.094 C 
ATOM      9  C7  HET A   1       2.865   1.349  -0.464  0.00  0.00     0.134 C 
ATOM     10  C8  HET A   1       0.234   1.324  -2.046  0.00  0.00     0.020 C 
ATOM     11  C9  HET A   1       4.097   0.333   2.196  0.00  0.00     0.054 C 
ATOM     12  C10 HET A   1      -0.947  -0.841  -0.488  0.00  0.00     0.085 C 
ATOM     13  C11 HET A   1       4.114  -0.818  -0.511  0.00  0.00     0.129 C 
ATOM     14  C12 HET A   1      -0.995   0.570  -2.563  0.00  0.00     0.003 C 
ATOM     15  C13 HET A   1       5.315  -0.431   1.670  0.00  0.00     0.011 C 
ATOM     16  C14 HET A   1      -0.968  -0.860  -2.022  0.00  0.00     0.016 C 
ATOM     17  C15 HET A   1       5.406  -0.327   0.147  0.00  0.00     0.051 C 
ATOM     18  H22 HET A   1       1.979  -0.550  -0.369  0.00  0.00     0.200 HD
ENDROOT
TORSDOF 0
