@<TRIPOS>MOLECULE
chumbinho.pdb
26 25 1 0 0
SMALL
AMBER ff14SB


@<TRIPOS>ATOM
      1 S          -0.3100   -0.0180    0.0520 S.3       1 HET   -0.1533
      2 O1          4.1700   -0.0180    0.0520 O.3       1 HET   -0.1580
      3 O2          5.3650    1.9780    0.0520 O.2       1 HET   -0.2403
      4 N1          3.0250    0.7510    0.2790 N.2       1 HET   -0.1351
      5 N2          6.1840    0.0410   -0.8990 N.am      1 HET   -0.2925
      6 C1          0.8420    0.7330    1.3170 C.3       1 HET    0.0475
      7 C2          0.8550    2.2530    1.2460 C.3       1 HET   -0.0455
      8 C3          0.3490    0.2700    2.6860 C.3       1 HET   -0.0455
      9 C4          2.1880    0.1180    1.0290 C.2       1 HET    0.0481
     10 C5          0.1640    0.7830   -1.5110 C.3       1 HET   -0.0175
     11 C6          5.2520    0.8220   -0.2590 C.2       1 HET    0.3743
     12 C7          7.4560    0.6380   -1.3080 C.3       1 HET    0.0019
     13 H21         1.5240    2.6760    2.0120 H         1 HET    0.0248
     14 H22         1.2350    2.6310    0.2850 H         1 HET    0.0248
     15 H23        -0.1400    2.6870    1.4060 H         1 HET    0.0248
     16 H31         0.2660   -0.8210    2.7710 H         1 HET    0.0248
     17 H32        -0.6380    0.6890    2.9280 H         1 HET    0.0248
     18 H33         1.0350    0.6040    3.4780 H         1 HET    0.0248
     19 H4          2.3740   -0.8710    1.4740 H         1 HET    0.0831
     20 H51        -0.3390    1.7470   -1.6360 H         1 HET    0.0344
     21 H52        -0.1310    0.1260   -2.3380 H         1 HET    0.0344
     22 H53         1.2480    0.9490   -1.5860 H         1 HET    0.0344
     23 H2          5.9980   -0.9080   -1.1660 H         1 HET    0.1515
     24 H71         7.5640    1.6650   -0.9040 H         1 HET    0.0431
     25 H72         7.5230    0.7000   -2.4080 H         1 HET    0.0431
     26 H73         8.2990    0.0340   -0.9270 H         1 HET    0.0431
@<TRIPOS>BOND
     1    1    6 1
     2    1   10 1
     3    2    4 1
     4    2   11 1
     5    3   11 2
     6    4    9 2
     7    5   11 am
     8    5   12 1
     9    5   23 1
    10    6    7 1
    11    6    8 1
    12    6    9 1
    13    7   13 1
    14    7   14 1
    15    7   15 1
    16    8   16 1
    17    8   17 1
    18    8   18 1
    19    9   19 1
    20   10   20 1
    21   10   21 1
    22   10   22 1
    23   12   24 1
    24   12   25 1
    25   12   26 1
@<TRIPOS>SUBSTRUCTURE
     1 HET     1 RESIDUE           4 A     HET     0 ROOT
