MODEL 1
REMARK VINA RESULT:    -8.424      0.000      0.000
REMARK INTER + INTRA:         -12.142
REMARK INTER:                 -11.379
REMARK INTRA:                  -0.763
REMARK UNBOUND:                -0.763
REMARK  6 active torsions:
REMARK  status: ('A' for Active; 'I' for Inactive)
REMARK    1  A    between atoms: O2_2  and  C16_20 
REMARK    2  A    between atoms: O3_3  and  C17_21 
REMARK    3  A    between atoms: N_4  and  C12_16 
REMARK    4  A    between atoms: C1_5  and  C2_6 
REMARK    5  A    between atoms: C2_6  and  C3_7 
REMARK    6  A    between atoms: C12_16  and  C15_19 
ROOT
HETATM    1  C2  HET A   1     -30.292  23.758 -11.959  1.00 -2.90     0.017 C 
ENDROOT
BRANCH   1   2
HETATM    2  C1  HET A   1     -29.112  23.023 -11.308  1.00 -0.95    -0.011 C 
HETATM    3  C5  HET A   1     -28.941  23.435  -9.836  1.00 -3.14     0.032 C 
HETATM    4  C7  HET A   1     -27.762  22.701  -9.206  1.00 -1.71     0.235 C 
HETATM    5  N   HET A   1     -26.484  23.033  -9.959  1.00 -1.14    -0.067 N 
HETATM    6  C6  HET A   1     -26.621  22.620 -11.416  1.00 -1.68     0.235 C 
HETATM    7  H   HET A   1     -26.334  24.074  -9.909  1.00  3.03     0.280 HD
HETATM    8  C4  HET A   1     -27.806  23.339 -12.059  1.00 -3.17     0.032 C 
BRANCH   5   9
HETATM    9  C12 HET A   1     -25.295  22.327  -9.322  1.00 -1.78     0.273 C 
BRANCH   9  10
HETATM   10  C15 HET A   1     -24.714  23.215  -8.265  1.00 -1.10    -0.033 A 
HETATM   11  C19 HET A   1     -24.489  22.721  -6.979  1.00 -1.37     0.009 A 
HETATM   12  C21 HET A   1     -23.948  23.555  -6.002  1.00 -1.27     0.001 A 
HETATM   13  C22 HET A   1     -23.638  24.878  -6.313  1.00 -1.00     0.000 A 
HETATM   14  C20 HET A   1     -23.853  25.367  -7.602  1.00 -1.23     0.001 A 
HETATM   15  C18 HET A   1     -24.387  24.536  -8.583  1.00 -1.59     0.009 A 
ENDBRANCH   9  10
ENDBRANCH   5   9
ENDBRANCH   1   2
BRANCH   1  16
HETATM   16  C3  HET A   1     -31.564  22.912 -11.977  1.00 -2.25     0.065 A 
HETATM   17  C8  HET A   1     -31.574  21.820 -13.078  1.00 -2.93     0.052 A 
HETATM   18  C10 HET A   1     -32.832  22.074 -13.858  1.00  0.68    -0.041 A 
HETATM   19  C13 HET A   1     -33.343  21.296 -14.890  1.00 -3.15     0.047 A 
HETATM   20  C11 HET A   1     -33.492  23.225 -13.423  1.00 -2.15     0.019 A 
HETATM   21  C16 HET A   1     -34.535  21.706 -15.486  1.00  2.20     0.102 A 
HETATM   22  C17 HET A   1     -35.200  22.895 -15.052  1.00  1.16     0.102 A 
HETATM   23  C14 HET A   1     -34.678  23.654 -14.017  1.00 -1.55     0.055 A 
HETATM   24  C9  HET A   1     -32.770  23.826 -12.300  1.00  4.84     0.164 A 
HETATM   25  O1  HET A   1     -33.015  24.828 -11.688  1.00 -4.36    -0.292 OA
BRANCH  21  26
HETATM   26  O2  HET A   1     -35.168  21.067 -16.495  1.00 -2.48    -0.353 OA
HETATM   27  C23 HET A   1     -34.449  20.909 -17.714  1.00 -2.19     0.210 C 
ENDBRANCH  21  26
BRANCH  22  28
HETATM   28  O3  HET A   1     -36.343  23.155 -15.740  1.00 -2.63    -0.353 OA
HETATM   29  C24 HET A   1     -37.531  23.298 -14.970  1.00 -2.14     0.210 C 
ENDBRANCH  22  28
ENDBRANCH   1  16
TORSDOF 6
ENDMDL
MODEL 2
REMARK VINA RESULT:    -8.415      3.967     10.218
REMARK INTER + INTRA:         -12.130
REMARK INTER:                 -11.341
REMARK INTRA:                  -0.790
REMARK UNBOUND:                -0.763
REMARK  6 active torsions:
REMARK  status: ('A' for Active; 'I' for Inactive)
REMARK    1  A    between atoms: O2_2  and  C16_20 
REMARK    2  A    between atoms: O3_3  and  C17_21 
REMARK    3  A    between atoms: N_4  and  C12_16 
REMARK    4  A    between atoms: C1_5  and  C2_6 
REMARK    5  A    between atoms: C2_6  and  C3_7 
REMARK    6  A    between atoms: C12_16  and  C15_19 
ROOT
HETATM    1  C2  HET A   1     -26.339  22.598 -13.092  1.00 -2.90     0.017 C 
ENDROOT
BRANCH   1   2
HETATM    2  C1  HET A   1     -27.724  22.384 -12.466  1.00 -0.95    -0.011 C 
HETATM    3  C5  HET A   1     -28.680  21.688 -13.451  1.00 -3.14     0.032 C 
HETATM    4  C7  HET A   1     -30.052  21.487 -12.817  1.00 -1.71     0.235 C 
HETATM    5  N   HET A   1     -30.644  22.832 -12.427  1.00 -1.14    -0.067 N 
HETATM    6  C6  HET A   1     -29.725  23.535 -11.440  1.00 -1.68     0.235 C 
HETATM    7  H   HET A   1     -30.727  23.419 -13.297  1.00  3.03     0.280 HD
HETATM    8  C4  HET A   1     -28.340  23.733 -12.056  1.00 -3.17     0.032 C 
BRANCH   5   9
HETATM    9  C12 HET A   1     -32.026  22.647 -11.817  1.00 -1.78     0.273 C 
BRANCH   9  10
HETATM   10  C15 HET A   1     -33.059  23.005 -12.842  1.00 -1.10    -0.033 A 
HETATM   11  C19 HET A   1     -33.204  22.228 -13.992  1.00 -1.37     0.009 A 
HETATM   12  C21 HET A   1     -34.168  22.570 -14.939  1.00 -1.27     0.001 A 
HETATM   13  C22 HET A   1     -34.979  23.683 -14.734  1.00 -1.00     0.000 A 
HETATM   14  C20 HET A   1     -34.840  24.451 -13.577  1.00 -1.23     0.001 A 
HETATM   15  C18 HET A   1     -33.884  24.112 -12.625  1.00 -1.59     0.009 A 
ENDBRANCH   9  10
ENDBRANCH   5   9
ENDBRANCH   1   2
BRANCH   1  16
HETATM   16  C3  HET A   1     -25.208  22.353 -12.096  1.00 -2.25     0.065 A 
HETATM   17  C8  HET A   1     -25.581  21.375 -10.952  1.00 -2.93     0.052 A 
HETATM   18  C10 HET A   1     -25.293  22.134  -9.689  1.00  0.68    -0.041 A 
HETATM   19  C13 HET A   1     -25.370  21.648  -8.389  1.00 -3.15     0.047 A 
HETATM   20  C11 HET A   1     -24.905  23.450  -9.948  1.00 -2.15     0.019 A 
HETATM   21  C16 HET A   1     -25.056  22.520  -7.348  1.00  2.20     0.102 A 
HETATM   22  C17 HET A   1     -24.676  23.873  -7.614  1.00  1.16     0.102 A 
HETATM   23  C14 HET A   1     -24.599  24.337  -8.917  1.00 -1.55     0.055 A 
HETATM   24  C9  HET A   1     -24.861  23.687 -11.393  1.00  4.84     0.164 A 
HETATM   25  O1  HET A   1     -24.600  24.694 -11.990  1.00 -4.36    -0.292 OA
BRANCH  21  26
HETATM   26  O2  HET A   1     -25.075  22.210  -6.032  1.00 -2.48    -0.353 OA
HETATM   27  C23 HET A   1     -23.868  21.711  -5.466  1.00 -2.19     0.210 C 
ENDBRANCH  21  26
BRANCH  22  28
HETATM   28  O3  HET A   1     -24.409  24.588  -6.490  1.00 -2.63    -0.353 OA
HETATM   29  C24 HET A   1     -23.412  25.597  -6.599  1.00 -2.14     0.210 C 
ENDBRANCH  22  28
ENDBRANCH   1  16
TORSDOF 6
ENDMDL
MODEL 3
REMARK VINA RESULT:    -8.265      4.616     10.189
REMARK INTER + INTRA:         -11.927
REMARK INTER:                 -10.750
REMARK INTRA:                  -1.177
REMARK UNBOUND:                -0.763
REMARK  6 active torsions:
REMARK  status: ('A' for Active; 'I' for Inactive)
REMARK    1  A    between atoms: O2_2  and  C16_20 
REMARK    2  A    between atoms: O3_3  and  C17_21 
REMARK    3  A    between atoms: N_4  and  C12_16 
REMARK    4  A    between atoms: C1_5  and  C2_6 
REMARK    5  A    between atoms: C2_6  and  C3_7 
REMARK    6  A    between atoms: C12_16  and  C15_19 
ROOT
HETATM    1  C2  HET A   1     -34.229  21.023 -17.029  1.00 -2.90     0.017 C 
ENDROOT
BRANCH   1   2
HETATM    2  C1  HET A   1     -34.178  22.483 -17.501  1.00 -0.95    -0.011 C 
HETATM    3  C5  HET A   1     -34.978  22.677 -18.800  1.00 -3.14     0.032 C 
HETATM    4  C7  HET A   1     -34.913  24.129 -19.260  1.00 -1.71     0.235 C 
HETATM    5  N   HET A   1     -33.468  24.529 -19.508  1.00 -1.14    -0.067 N 
HETATM    6  C6  HET A   1     -32.658  24.362 -18.232  1.00 -1.68     0.235 C 
HETATM    7  H   HET A   1     -33.075  23.895 -20.251  1.00  3.03     0.280 HD
HETATM    8  C4  HET A   1     -32.723  22.913 -17.752  1.00 -3.17     0.032 C 
BRANCH   5   9
HETATM    9  C12 HET A   1     -33.393  25.971 -19.993  1.00 -1.78     0.273 C 
BRANCH   9  10
HETATM   10  C15 HET A   1     -32.256  26.097 -20.960  1.00 -1.10    -0.033 A 
HETATM   11  C19 HET A   1     -31.453  27.239 -20.953  1.00 -1.37     0.009 A 
HETATM   12  C21 HET A   1     -30.397  27.347 -21.857  1.00 -1.27     0.001 A 
HETATM   13  C22 HET A   1     -30.150  26.318 -22.763  1.00 -1.00     0.000 A 
HETATM   14  C20 HET A   1     -30.948  25.172 -22.760  1.00 -1.23     0.001 A 
HETATM   15  C18 HET A   1     -31.999  25.056 -21.856  1.00 -1.59     0.009 A 
ENDBRANCH   9  10
ENDBRANCH   5   9
ENDBRANCH   1   2
BRANCH   1  16
HETATM   16  C3  HET A   1     -34.210  20.904 -15.506  1.00 -2.25     0.065 A 
HETATM   17  C8  HET A   1     -34.726  22.170 -14.772  1.00 -2.93     0.052 A 
HETATM   18  C10 HET A   1     -33.613  22.551 -13.838  1.00  0.68    -0.041 A 
HETATM   19  C13 HET A   1     -33.635  23.565 -12.887  1.00 -3.15     0.047 A 
HETATM   20  C11 HET A   1     -32.489  21.741 -14.008  1.00 -2.15     0.019 A 
HETATM   21  C16 HET A   1     -32.492  23.755 -12.112  1.00  2.20     0.102 A 
HETATM   22  C17 HET A   1     -31.334  22.937 -12.299  1.00  1.16     0.102 A 
HETATM   23  C14 HET A   1     -31.335  21.926 -13.248  1.00 -1.55     0.055 A 
HETATM   24  C9  HET A   1     -32.748  20.728 -15.034  1.00  4.84     0.164 A 
HETATM   25  O1  HET A   1     -32.017  19.882 -15.467  1.00 -4.36    -0.292 OA
BRANCH  21  26
HETATM   26  O2  HET A   1     -32.347  24.688 -11.145  1.00 -2.48    -0.353 OA
HETATM   27  C23 HET A   1     -32.733  26.021 -11.467  1.00 -2.19     0.210 C 
ENDBRANCH  21  26
BRANCH  22  28
HETATM   28  O3  HET A   1     -30.308  23.257 -11.468  1.00 -2.63    -0.353 OA
HETATM   29  C24 HET A   1     -29.024  23.393 -12.066  1.00 -2.14     0.210 C 
ENDBRANCH  22  28
ENDBRANCH   1  16
TORSDOF 6
ENDMDL
MODEL 4
REMARK VINA RESULT:    -8.208      5.447     10.768
REMARK INTER + INTRA:         -11.850
REMARK INTER:                 -10.974
REMARK INTRA:                  -0.876
REMARK UNBOUND:                -0.763
REMARK  6 active torsions:
REMARK  status: ('A' for Active; 'I' for Inactive)
REMARK    1  A    between atoms: O2_2  and  C16_20 
REMARK    2  A    between atoms: O3_3  and  C17_21 
REMARK    3  A    between atoms: N_4  and  C12_16 
REMARK    4  A    between atoms: C1_5  and  C2_6 
REMARK    5  A    between atoms: C2_6  and  C3_7 
REMARK    6  A    between atoms: C12_16  and  C15_19 
ROOT
HETATM    1  C2  HET A   1     -34.038  20.095 -18.026  1.00 -2.90     0.017 C 
ENDROOT
BRANCH   1   2
HETATM    2  C1  HET A   1     -34.117  18.708 -18.679  1.00 -0.95    -0.011 C 
HETATM    3  C5  HET A   1     -34.234  17.599 -17.621  1.00 -3.14     0.032 C 
HETATM    4  C7  HET A   1     -34.305  16.228 -18.285  1.00 -1.71     0.235 C 
HETATM    5  N   HET A   1     -33.052  15.988 -19.111  1.00 -1.14    -0.067 N 
HETATM    6  C6  HET A   1     -32.922  17.064 -20.177  1.00 -1.68     0.235 C 
HETATM    7  H   HET A   1     -32.220  16.038 -18.468  1.00  3.03     0.280 HD
HETATM    8  C4  HET A   1     -32.861  18.446 -19.528  1.00 -3.17     0.032 C 
BRANCH   5   9
HETATM    9  C12 HET A   1     -33.100  14.610 -19.758  1.00 -1.78     0.273 C 
BRANCH   9  10
HETATM   10  C15 HET A   1     -32.142  13.706 -19.043  1.00 -1.10    -0.033 A 
HETATM   11  C19 HET A   1     -30.798  13.675 -19.416  1.00 -1.37     0.009 A 
HETATM   12  C21 HET A   1     -29.914  12.831 -18.745  1.00 -1.27     0.001 A 
HETATM   13  C22 HET A   1     -30.377  12.023 -17.709  1.00 -1.00     0.000 A 
HETATM   14  C20 HET A   1     -31.720  12.065 -17.330  1.00 -1.23     0.001 A 
HETATM   15  C18 HET A   1     -32.606  12.909 -17.993  1.00 -1.59     0.009 A 
ENDBRANCH   9  10
ENDBRANCH   5   9
ENDBRANCH   1   2
BRANCH   1  16
HETATM   16  C3  HET A   1     -34.326  20.047 -16.526  1.00 -2.25     0.065 A 
HETATM   17  C8  HET A   1     -35.429  21.037 -16.068  1.00 -2.93     0.052 A 
HETATM   18  C10 HET A   1     -34.784  21.854 -14.986  1.00  0.68    -0.041 A 
HETATM   19  C13 HET A   1     -35.399  22.813 -14.188  1.00 -3.15     0.047 A 
HETATM   20  C11 HET A   1     -33.432  21.542 -14.831  1.00 -2.15     0.019 A 
HETATM   21  C16 HET A   1     -34.620  23.461 -13.231  1.00  2.20     0.102 A 
HETATM   22  C17 HET A   1     -33.230  23.153 -13.086  1.00  1.16     0.102 A 
HETATM   23  C14 HET A   1     -32.637  22.190 -13.887  1.00 -1.55     0.055 A 
HETATM   24  C9  HET A   1     -33.053  20.473 -15.757  1.00  4.84     0.164 A 
HETATM   25  O1  HET A   1     -31.981  19.965 -15.932  1.00 -4.36    -0.292 OA
BRANCH  21  26
HETATM   26  O2  HET A   1     -35.058  24.411 -12.375  1.00 -2.48    -0.353 OA
HETATM   27  C23 HET A   1     -36.027  24.015 -11.409  1.00 -2.19     0.210 C 
ENDBRANCH  21  26
BRANCH  22  28
HETATM   28  O3  HET A   1     -32.617  23.878 -12.114  1.00 -2.63    -0.353 OA
HETATM   29  C24 HET A   1     -32.021  23.143 -11.052  1.00 -2.14     0.210 C 
ENDBRANCH  22  28
ENDBRANCH   1  16
TORSDOF 6
ENDMDL
MODEL 5
REMARK VINA RESULT:    -8.169      4.962     12.534
REMARK INTER + INTRA:         -11.798
REMARK INTER:                 -11.105
REMARK INTRA:                  -0.693
REMARK UNBOUND:                -0.763
REMARK  6 active torsions:
REMARK  status: ('A' for Active; 'I' for Inactive)
REMARK    1  A    between atoms: O2_2  and  C16_20 
REMARK    2  A    between atoms: O3_3  and  C17_21 
REMARK    3  A    between atoms: N_4  and  C12_16 
REMARK    4  A    between atoms: C1_5  and  C2_6 
REMARK    5  A    between atoms: C2_6  and  C3_7 
REMARK    6  A    between atoms: C12_16  and  C15_19 
ROOT
HETATM    1  C2  HET A   1     -37.259  22.921 -12.835  1.00 -2.90     0.017 C 
ENDROOT
BRANCH   1   2
HETATM    2  C1  HET A   1     -38.042  22.666 -14.131  1.00 -0.95    -0.011 C 
HETATM    3  C5  HET A   1     -39.537  22.978 -13.950  1.00 -3.14     0.032 C 
HETATM    4  C7  HET A   1     -40.302  22.714 -15.243  1.00 -1.71     0.235 C 
HETATM    5  N   HET A   1     -40.149  21.256 -15.646  1.00 -1.14    -0.067 N 
HETATM    6  C6  HET A   1     -38.679  20.926 -15.847  1.00 -1.68     0.235 C 
HETATM    7  H   HET A   1     -40.532  20.659 -14.868  1.00  3.03     0.280 HD
HETATM    8  C4  HET A   1     -37.896  21.197 -14.563  1.00 -3.17     0.032 C 
BRANCH   5   9
HETATM    9  C12 HET A   1     -40.931  20.974 -16.922  1.00 -1.78     0.273 C 
BRANCH   9  10
HETATM   10  C15 HET A   1     -42.019  19.990 -16.616  1.00 -1.10    -0.033 A 
HETATM   11  C19 HET A   1     -42.371  19.724 -15.293  1.00 -1.37     0.009 A 
HETATM   12  C21 HET A   1     -43.384  18.807 -15.018  1.00 -1.27     0.001 A 
HETATM   13  C22 HET A   1     -44.037  18.160 -16.065  1.00 -1.00     0.000 A 
HETATM   14  C20 HET A   1     -43.690  18.436 -17.388  1.00 -1.23     0.001 A 
HETATM   15  C18 HET A   1     -42.683  19.355 -17.668  1.00 -1.59     0.009 A 
ENDBRANCH   9  10
ENDBRANCH   5   9
ENDBRANCH   1   2
BRANCH   1  16
HETATM   16  C3  HET A   1     -35.980  23.720 -13.078  1.00 -2.25     0.065 A 
HETATM   17  C8  HET A   1     -34.949  22.993 -13.980  1.00 -2.93     0.052 A 
HETATM   18  C10 HET A   1     -33.684  22.964 -13.170  1.00  0.68    -0.041 A 
HETATM   19  C13 HET A   1     -32.440  22.506 -13.586  1.00 -3.15     0.047 A 
HETATM   20  C11 HET A   1     -33.875  23.480 -11.887  1.00 -2.15     0.019 A 
HETATM   21  C16 HET A   1     -31.385  22.570 -12.677  1.00  2.20     0.102 A 
HETATM   22  C17 HET A   1     -31.585  23.082 -11.356  1.00  1.16     0.102 A 
HETATM   23  C14 HET A   1     -32.833  23.540 -10.962  1.00 -1.55     0.055 A 
HETATM   24  C9  HET A   1     -35.258  23.933 -11.726  1.00  4.84     0.164 A 
HETATM   25  O1  HET A   1     -35.796  24.403 -10.763  1.00 -4.36    -0.292 OA
BRANCH  21  26
HETATM   26  O2  HET A   1     -30.116  22.172 -12.918  1.00 -2.48    -0.353 OA
HETATM   27  C23 HET A   1     -29.938  21.091 -13.828  1.00 -2.19     0.210 C 
ENDBRANCH  21  26
BRANCH  22  28
HETATM   28  O3  HET A   1     -30.459  23.068 -10.596  1.00 -2.63    -0.353 OA
HETATM   29  C24 HET A   1     -30.484  23.847  -9.406  1.00 -2.14     0.210 C 
ENDBRANCH  22  28
ENDBRANCH   1  16
TORSDOF 6
ENDMDL
MODEL 6
REMARK VINA RESULT:    -8.120      4.480     10.930
REMARK INTER + INTRA:         -11.732
REMARK INTER:                 -10.948
REMARK INTRA:                  -0.784
REMARK UNBOUND:                -0.763
REMARK  6 active torsions:
REMARK  status: ('A' for Active; 'I' for Inactive)
REMARK    1  A    between atoms: O2_2  and  C16_20 
REMARK    2  A    between atoms: O3_3  and  C17_21 
REMARK    3  A    between atoms: N_4  and  C12_16 
REMARK    4  A    between atoms: C1_5  and  C2_6 
REMARK    5  A    between atoms: C2_6  and  C3_7 
REMARK    6  A    between atoms: C12_16  and  C15_19 
ROOT
HETATM    1  C2  HET A   1     -34.036  21.569 -17.188  1.00 -2.90     0.017 C 
ENDROOT
BRANCH   1   2
HETATM    2  C1  HET A   1     -34.518  20.347 -17.982  1.00 -0.95    -0.011 C 
HETATM    3  C5  HET A   1     -35.621  19.589 -17.224  1.00 -3.14     0.032 C 
HETATM    4  C7  HET A   1     -36.085  18.375 -18.023  1.00 -1.71     0.235 C 
HETATM    5  N   HET A   1     -34.915  17.434 -18.259  1.00 -1.14    -0.067 N 
HETATM    6  C6  HET A   1     -33.816  18.156 -19.023  1.00 -1.68     0.235 C 
HETATM    7  H   HET A   1     -34.542  17.132 -17.323  1.00  3.03     0.280 HD
HETATM    8  C4  HET A   1     -33.348  19.382 -18.241  1.00 -3.17     0.032 C 
BRANCH   5   9
HETATM    9  C12 HET A   1     -35.372  16.204 -19.034  1.00 -1.78     0.273 C 
BRANCH   9  10
HETATM   10  C15 HET A   1     -34.569  15.023 -18.583  1.00 -1.10    -0.033 A 
HETATM   11  C19 HET A   1     -34.576  14.640 -17.241  1.00 -1.37     0.009 A 
HETATM   12  C21 HET A   1     -33.826  13.540 -16.832  1.00 -1.27     0.001 A 
HETATM   13  C22 HET A   1     -33.071  12.829 -17.763  1.00 -1.00     0.000 A 
HETATM   14  C20 HET A   1     -33.074  13.207 -19.107  1.00 -1.23     0.001 A 
HETATM   15  C18 HET A   1     -33.826  14.302 -19.522  1.00 -1.59     0.009 A 
ENDBRANCH   9  10
ENDBRANCH   5   9
ENDBRANCH   1   2
BRANCH   1  16
HETATM   16  C3  HET A   1     -34.175  21.372 -15.680  1.00 -2.25     0.065 A 
HETATM   17  C8  HET A   1     -34.697  22.625 -14.929  1.00 -2.93     0.052 A 
HETATM   18  C10 HET A   1     -33.666  22.897 -13.872  1.00  0.68    -0.041 A 
HETATM   19  C13 HET A   1     -33.732  23.861 -12.873  1.00 -3.15     0.047 A 
HETATM   20  C11 HET A   1     -32.571  22.037 -13.978  1.00 -2.15     0.019 A 
HETATM   21  C16 HET A   1     -32.664  23.949 -11.981  1.00  2.20     0.102 A 
HETATM   22  C17 HET A   1     -31.535  23.079 -12.101  1.00  1.16     0.102 A 
HETATM   23  C14 HET A   1     -31.490  22.120 -13.101  1.00 -1.55     0.055 A 
HETATM   24  C9  HET A   1     -32.776  21.093 -15.079  1.00  4.84     0.164 A 
HETATM   25  O1  HET A   1     -32.048  20.232 -15.487  1.00 -4.36    -0.292 OA
BRANCH  21  26
HETATM   26  O2  HET A   1     -32.570  24.822 -10.954  1.00 -2.48    -0.353 OA
HETATM   27  C23 HET A   1     -32.697  26.206 -11.266  1.00 -2.19     0.210 C 
ENDBRANCH  21  26
BRANCH  22  28
HETATM   28  O3  HET A   1     -30.582  23.300 -11.159  1.00 -2.63    -0.353 OA
HETATM   29  C24 HET A   1     -29.297  23.689 -11.632  1.00 -2.14     0.210 C 
ENDBRANCH  22  28
ENDBRANCH   1  16
TORSDOF 6
ENDMDL
MODEL 7
REMARK VINA RESULT:    -7.970      5.195      8.597
REMARK INTER + INTRA:         -11.529
REMARK INTER:                 -10.687
REMARK INTRA:                  -0.843
REMARK UNBOUND:                -0.763
REMARK  6 active torsions:
REMARK  status: ('A' for Active; 'I' for Inactive)
REMARK    1  A    between atoms: O2_2  and  C16_20 
REMARK    2  A    between atoms: O3_3  and  C17_21 
REMARK    3  A    between atoms: N_4  and  C12_16 
REMARK    4  A    between atoms: C1_5  and  C2_6 
REMARK    5  A    between atoms: C2_6  and  C3_7 
REMARK    6  A    between atoms: C12_16  and  C15_19 
ROOT
HETATM    1  C2  HET A   1     -32.804  21.018 -18.710  1.00 -2.90     0.017 C 
ENDROOT
BRANCH   1   2
HETATM    2  C1  HET A   1     -33.409  21.370 -17.344  1.00 -0.95    -0.011 C 
HETATM    3  C5  HET A   1     -33.419  22.890 -17.112  1.00 -3.14     0.032 C 
HETATM    4  C7  HET A   1     -34.017  23.223 -15.750  1.00 -1.71     0.235 C 
HETATM    5  N   HET A   1     -33.198  22.565 -14.651  1.00 -1.14    -0.067 N 
HETATM    6  C6  HET A   1     -33.186  21.057 -14.847  1.00 -1.68     0.235 C 
HETATM    7  H   HET A   1     -32.212  22.928 -14.714  1.00  3.03     0.280 HD
HETATM    8  C4  HET A   1     -32.600  20.707 -16.215  1.00 -3.17     0.032 C 
BRANCH   5   9
HETATM    9  C12 HET A   1     -33.770  22.912 -13.283  1.00 -1.78     0.273 C 
BRANCH   9  10
HETATM   10  C15 HET A   1     -32.758  23.714 -12.524  1.00 -1.10    -0.033 A 
HETATM   11  C19 HET A   1     -31.454  23.239 -12.379  1.00 -1.37     0.009 A 
HETATM   12  C21 HET A   1     -30.518  23.993 -11.671  1.00 -1.27     0.001 A 
HETATM   13  C22 HET A   1     -30.890  25.213 -11.111  1.00 -1.00     0.000 A 
HETATM   14  C20 HET A   1     -32.192  25.691 -11.267  1.00 -1.23     0.001 A 
HETATM   15  C18 HET A   1     -33.129  24.946 -11.978  1.00 -1.59     0.009 A 
ENDBRANCH   9  10
ENDBRANCH   5   9
ENDBRANCH   1   2
BRANCH   1  16
HETATM   16  C3  HET A   1     -33.569  19.899 -19.413  1.00 -2.25     0.065 A 
HETATM   17  C8  HET A   1     -34.499  19.089 -18.473  1.00 -2.93     0.052 A 
HETATM   18  C10 HET A   1     -34.073  17.660 -18.651  1.00  0.68    -0.041 A 
HETATM   19  C13 HET A   1     -34.674  16.536 -18.095  1.00 -3.15     0.047 A 
HETATM   20  C11 HET A   1     -32.958  17.547 -19.484  1.00 -2.15     0.019 A 
HETATM   21  C16 HET A   1     -34.123  15.290 -18.389  1.00  2.20     0.102 A 
HETATM   22  C17 HET A   1     -32.970  15.177 -19.228  1.00  1.16     0.102 A 
HETATM   23  C14 HET A   1     -32.388  16.309 -19.778  1.00 -1.55     0.055 A 
HETATM   24  C9  HET A   1     -32.556  18.870 -19.968  1.00  4.84     0.164 A 
HETATM   25  O1  HET A   1     -31.636  19.172 -20.674  1.00 -4.36    -0.292 OA
BRANCH  21  26
HETATM   26  O2  HET A   1     -34.583  14.102 -17.938  1.00 -2.48    -0.353 OA
HETATM   27  C23 HET A   1     -34.628  13.919 -16.526  1.00 -2.19     0.210 C 
ENDBRANCH  21  26
BRANCH  22  28
HETATM   28  O3  HET A   1     -32.557  13.896 -19.408  1.00 -2.63    -0.353 OA
HETATM   29  C24 HET A   1     -31.204  13.713 -19.809  1.00 -2.14     0.210 C 
ENDBRANCH  22  28
ENDBRANCH   1  16
TORSDOF 6
ENDMDL
MODEL 8
REMARK VINA RESULT:    -7.957      4.087     10.622
REMARK INTER + INTRA:         -11.512
REMARK INTER:                 -11.289
REMARK INTRA:                  -0.222
REMARK UNBOUND:                -0.763
REMARK  6 active torsions:
REMARK  status: ('A' for Active; 'I' for Inactive)
REMARK    1  A    between atoms: O2_2  and  C16_20 
REMARK    2  A    between atoms: O3_3  and  C17_21 
REMARK    3  A    between atoms: N_4  and  C12_16 
REMARK    4  A    between atoms: C1_5  and  C2_6 
REMARK    5  A    between atoms: C2_6  and  C3_7 
REMARK    6  A    between atoms: C12_16  and  C15_19 
ROOT
HETATM    1  C2  HET A   1     -26.352  22.537 -11.430  1.00 -2.90     0.017 C 
ENDROOT
BRANCH   1   2
HETATM    2  C1  HET A   1     -27.612  22.646 -12.300  1.00 -0.95    -0.011 C 
HETATM    3  C5  HET A   1     -28.767  23.308 -11.529  1.00 -3.14     0.032 C 
HETATM    4  C7  HET A   1     -30.012  23.404 -12.404  1.00 -1.71     0.235 C 
HETATM    5  N   HET A   1     -30.447  22.013 -12.838  1.00 -1.14    -0.067 N 
HETATM    6  C6  HET A   1     -29.327  21.342 -13.618  1.00 -1.68     0.235 C 
HETATM    7  H   HET A   1     -30.651  21.448 -11.974  1.00  3.03     0.280 HD
HETATM    8  C4  HET A   1     -28.067  21.249 -12.758  1.00 -3.17     0.032 C 
BRANCH   5   9
HETATM    9  C12 HET A   1     -31.706  22.094 -13.691  1.00 -1.78     0.273 C 
BRANCH   9  10
HETATM   10  C15 HET A   1     -32.731  22.911 -12.965  1.00 -1.10    -0.033 A 
HETATM   11  C19 HET A   1     -32.707  22.988 -11.572  1.00 -1.37     0.009 A 
HETATM   12  C21 HET A   1     -33.665  23.751 -10.906  1.00 -1.27     0.001 A 
HETATM   13  C22 HET A   1     -34.640  24.430 -11.634  1.00 -1.00     0.000 A 
HETATM   14  C20 HET A   1     -34.655  24.360 -13.027  1.00 -1.23     0.001 A 
HETATM   15  C18 HET A   1     -33.698  23.605 -13.698  1.00 -1.59     0.009 A 
ENDBRANCH   9  10
ENDBRANCH   5   9
ENDBRANCH   1   2
BRANCH   1  16
HETATM   16  C3  HET A   1     -26.680  22.236  -9.968  1.00 -2.25     0.065 A 
HETATM   17  C8  HET A   1     -26.211  23.337  -8.981  1.00 -2.93     0.052 A 
HETATM   18  C10 HET A   1     -25.355  22.615  -7.981  1.00  0.68    -0.041 A 
HETATM   19  C13 HET A   1     -24.782  23.152  -6.834  1.00 -3.15     0.047 A 
HETATM   20  C11 HET A   1     -25.181  21.271  -8.316  1.00 -2.15     0.019 A 
HETATM   21  C16 HET A   1     -24.019  22.306  -6.029  1.00  2.20     0.102 A 
HETATM   22  C17 HET A   1     -23.827  20.934  -6.383  1.00  1.16     0.102 A 
HETATM   23  C14 HET A   1     -24.412  20.416  -7.528  1.00 -1.55     0.055 A 
HETATM   24  C9  HET A   1     -25.925  20.956  -9.538  1.00  4.84     0.164 A 
HETATM   25  O1  HET A   1     -25.993  19.922 -10.140  1.00 -4.36    -0.292 OA
BRANCH  21  26
HETATM   26  O2  HET A   1     -23.399  22.663  -4.883  1.00 -2.48    -0.353 OA
HETATM   27  C23 HET A   1     -23.025  24.031  -4.748  1.00 -2.19     0.210 C 
ENDBRANCH  21  26
BRANCH  22  28
HETATM   28  O3  HET A   1     -23.055  20.252  -5.498  1.00 -2.63    -0.353 OA
HETATM   29  C24 HET A   1     -22.541  18.999  -5.934  1.00 -2.14     0.210 C 
ENDBRANCH  22  28
ENDBRANCH   1  16
TORSDOF 6
ENDMDL
MODEL 9
REMARK VINA RESULT:    -7.916     16.286     18.323
REMARK INTER + INTRA:         -11.456
REMARK INTER:                 -10.567
REMARK INTRA:                  -0.888
REMARK UNBOUND:                -0.763
REMARK  6 active torsions:
REMARK  status: ('A' for Active; 'I' for Inactive)
REMARK    1  A    between atoms: O2_2  and  C16_20 
REMARK    2  A    between atoms: O3_3  and  C17_21 
REMARK    3  A    between atoms: N_4  and  C12_16 
REMARK    4  A    between atoms: C1_5  and  C2_6 
REMARK    5  A    between atoms: C2_6  and  C3_7 
REMARK    6  A    between atoms: C12_16  and  C15_19 
ROOT
HETATM    1  C2  HET A   1     -45.367  28.741  -1.458  1.00 -2.90     0.017 C 
ENDROOT
BRANCH   1   2
HETATM    2  C1  HET A   1     -45.178  30.070  -0.713  1.00 -0.95    -0.011 C 
HETATM    3  C5  HET A   1     -44.221  31.004  -1.472  1.00 -3.14     0.032 C 
HETATM    4  C7  HET A   1     -44.038  32.316  -0.716  1.00 -1.71     0.235 C 
HETATM    5  N   HET A   1     -43.464  32.042   0.664  1.00 -1.14    -0.067 N 
HETATM    6  C6  HET A   1     -44.401  31.132   1.443  1.00 -1.68     0.235 C 
HETATM    7  H   HET A   1     -42.536  31.559   0.544  1.00  3.03     0.280 HD
HETATM    8  C4  HET A   1     -44.604  29.817   0.692  1.00 -3.17     0.032 C 
BRANCH   5   9
HETATM    9  C12 HET A   1     -43.252  33.348   1.418  1.00 -1.78     0.273 C 
BRANCH   9  10
HETATM   10  C15 HET A   1     -41.938  33.285   2.135  1.00 -1.10    -0.033 A 
HETATM   11  C19 HET A   1     -41.898  33.023   3.504  1.00 -1.37     0.009 A 
HETATM   12  C21 HET A   1     -40.670  32.966   4.162  1.00 -1.27     0.001 A 
HETATM   13  C22 HET A   1     -39.490  33.174   3.449  1.00 -1.00     0.000 A 
HETATM   14  C20 HET A   1     -39.533  33.425   2.077  1.00 -1.23     0.001 A 
HETATM   15  C18 HET A   1     -40.755  33.477   1.414  1.00 -1.59     0.009 A 
ENDBRANCH   9  10
ENDBRANCH   5   9
ENDBRANCH   1   2
BRANCH   1  16
HETATM   16  C3  HET A   1     -44.145  28.365  -2.293  1.00 -2.25     0.065 A 
HETATM   17  C8  HET A   1     -44.471  28.056  -3.777  1.00 -2.93     0.052 A 
HETATM   18  C10 HET A   1     -43.912  26.682  -4.014  1.00  0.68    -0.041 A 
HETATM   19  C13 HET A   1     -43.864  26.000  -5.225  1.00 -3.15     0.047 A 
HETATM   20  C11 HET A   1     -43.403  26.117  -2.844  1.00 -2.15     0.019 A 
HETATM   21  C16 HET A   1     -43.296  24.727  -5.233  1.00  2.20     0.102 A 
HETATM   22  C17 HET A   1     -42.791  24.141  -4.030  1.00  1.16     0.102 A 
HETATM   23  C14 HET A   1     -42.843  24.840  -2.834  1.00 -1.55     0.055 A 
HETATM   24  C9  HET A   1     -43.536  27.059  -1.730  1.00  4.84     0.164 A 
HETATM   25  O1  HET A   1     -43.238  26.918  -0.577  1.00 -4.36    -0.292 OA
BRANCH  21  26
HETATM   26  O2  HET A   1     -43.167  23.933  -6.319  1.00 -2.48    -0.353 OA
HETATM   27  C23 HET A   1     -43.574  24.476  -7.571  1.00 -2.19     0.210 C 
ENDBRANCH  21  26
BRANCH  22  28
HETATM   28  O3  HET A   1     -42.279  22.896  -4.210  1.00 -2.63    -0.353 OA
HETATM   29  C24 HET A   1     -41.065  22.602  -3.528  1.00 -2.14     0.210 C 
ENDBRANCH  22  28
ENDBRANCH   1  16
TORSDOF 6
ENDMDL
MODEL 10
REMARK VINA RESULT:    -7.907      4.638     10.849
REMARK INTER + INTRA:         -11.443
REMARK INTER:                 -11.086
REMARK INTRA:                  -0.358
REMARK UNBOUND:                -0.763
REMARK  6 active torsions:
REMARK  status: ('A' for Active; 'I' for Inactive)
REMARK    1  A    between atoms: O2_2  and  C16_20 
REMARK    2  A    between atoms: O3_3  and  C17_21 
REMARK    3  A    between atoms: N_4  and  C12_16 
REMARK    4  A    between atoms: C1_5  and  C2_6 
REMARK    5  A    between atoms: C2_6  and  C3_7 
REMARK    6  A    between atoms: C12_16  and  C15_19 
ROOT
HETATM    1  C2  HET A   1     -35.447  20.601 -16.138  1.00 -2.90     0.017 C 
ENDROOT
BRANCH   1   2
HETATM    2  C1  HET A   1     -35.191  19.661 -17.325  1.00 -0.95    -0.011 C 
HETATM    3  C5  HET A   1     -36.412  18.766 -17.601  1.00 -3.14     0.032 C 
HETATM    4  C7  HET A   1     -36.140  17.835 -18.777  1.00 -1.71     0.235 C 
HETATM    5  N   HET A   1     -34.943  16.950 -18.470  1.00 -1.14    -0.067 N 
HETATM    6  C6  HET A   1     -33.717  17.811 -18.209  1.00 -1.68     0.235 C 
HETATM    7  H   HET A   1     -35.161  16.390 -17.606  1.00  3.03     0.280 HD
HETATM    8  C4  HET A   1     -33.978  18.759 -17.039  1.00 -3.17     0.032 C 
BRANCH   5   9
HETATM    9  C12 HET A   1     -34.678  15.996 -19.627  1.00 -1.78     0.273 C 
BRANCH   9  10
HETATM   10  C15 HET A   1     -33.850  14.851 -19.130  1.00 -1.10    -0.033 A 
HETATM   11  C19 HET A   1     -34.189  14.205 -17.941  1.00 -1.37     0.009 A 
HETATM   12  C21 HET A   1     -33.412  13.140 -17.487  1.00 -1.27     0.001 A 
HETATM   13  C22 HET A   1     -32.302  12.728 -18.221  1.00 -1.00     0.000 A 
HETATM   14  C20 HET A   1     -31.972  13.368 -19.416  1.00 -1.23     0.001 A 
HETATM   15  C18 HET A   1     -32.747  14.428 -19.877  1.00 -1.59     0.009 A 
ENDBRANCH   9  10
ENDBRANCH   5   9
ENDBRANCH   1   2
BRANCH   1  16
HETATM   16  C3  HET A   1     -34.354  21.657 -15.988  1.00 -2.25     0.065 A 
HETATM   17  C8  HET A   1     -33.072  21.136 -15.287  1.00 -2.93     0.052 A 
HETATM   18  C10 HET A   1     -32.858  22.075 -14.134  1.00  0.68    -0.041 A 
HETATM   19  C13 HET A   1     -31.776  22.087 -13.261  1.00 -3.15     0.047 A 
HETATM   20  C11 HET A   1     -33.897  22.999 -14.014  1.00 -2.15     0.019 A 
HETATM   21  C16 HET A   1     -31.765  23.050 -12.252  1.00  2.20     0.102 A 
HETATM   22  C17 HET A   1     -32.839  23.985 -12.119  1.00  1.16     0.102 A 
HETATM   23  C14 HET A   1     -33.906  23.960 -13.004  1.00 -1.55     0.055 A 
HETATM   24  C9  HET A   1     -34.877  22.797 -15.083  1.00  4.84     0.164 A 
HETATM   25  O1  HET A   1     -35.908  23.375 -15.288  1.00 -4.36    -0.292 OA
BRANCH  21  26
HETATM   26  O2  HET A   1     -30.793  23.203 -11.326  1.00 -2.48    -0.353 OA
HETATM   27  C23 HET A   1     -29.522  23.648 -11.788  1.00 -2.19     0.210 C 
ENDBRANCH  21  26
BRANCH  22  28
HETATM   28  O3  HET A   1     -32.676  24.848 -11.083  1.00 -2.63    -0.353 OA
HETATM   29  C24 HET A   1     -32.702  26.235 -11.400  1.00 -2.14     0.210 C 
ENDBRANCH  22  28
ENDBRANCH   1  16
TORSDOF 6
ENDMDL
MODEL 11
REMARK VINA RESULT:    -7.552      5.133      9.142
REMARK INTER + INTRA:         -10.965
REMARK INTER:                 -10.381
REMARK INTRA:                  -0.584
REMARK UNBOUND:                -0.763
REMARK  6 active torsions:
REMARK  status: ('A' for Active; 'I' for Inactive)
REMARK    1  A    between atoms: O2_2  and  C16_20 
REMARK    2  A    between atoms: O3_3  and  C17_21 
REMARK    3  A    between atoms: N_4  and  C12_16 
REMARK    4  A    between atoms: C1_5  and  C2_6 
REMARK    5  A    between atoms: C2_6  and  C3_7 
REMARK    6  A    between atoms: C12_16  and  C15_19 
ROOT
HETATM    1  C2  HET A   1     -38.267  21.270 -14.295  1.00 -2.90     0.017 C 
ENDROOT
BRANCH   1   2
HETATM    2  C1  HET A   1     -37.478  22.529 -13.910  1.00 -0.95    -0.011 C 
HETATM    3  C5  HET A   1     -36.074  22.520 -14.539  1.00 -3.14     0.032 C 
HETATM    4  C7  HET A   1     -35.301  23.774 -14.143  1.00 -1.71     0.235 C 
HETATM    5  N   HET A   1     -35.161  23.839 -12.631  1.00 -1.14    -0.067 N 
HETATM    6  C6  HET A   1     -36.537  23.865 -11.985  1.00 -1.68     0.235 C 
HETATM    7  H   HET A   1     -34.647  22.979 -12.311  1.00  3.03     0.280 HD
HETATM    8  C4  HET A   1     -37.330  22.620 -12.382  1.00 -3.17     0.032 C 
BRANCH   5   9
HETATM    9  C12 HET A   1     -34.367  25.074 -12.225  1.00 -1.78     0.273 C 
BRANCH   9  10
HETATM   10  C15 HET A   1     -32.936  24.682 -12.018  1.00 -1.10    -0.033 A 
HETATM   11  C19 HET A   1     -32.505  23.397 -12.352  1.00 -1.37     0.009 A 
HETATM   12  C21 HET A   1     -31.172  23.042 -12.155  1.00 -1.27     0.001 A 
HETATM   13  C22 HET A   1     -30.277  23.970 -11.625  1.00 -1.00     0.000 A 
HETATM   14  C20 HET A   1     -30.708  25.257 -11.303  1.00 -1.23     0.001 A 
HETATM   15  C18 HET A   1     -32.037  25.619 -11.502  1.00 -1.59     0.009 A 
ENDBRANCH   9  10
ENDBRANCH   5   9
ENDBRANCH   1   2
BRANCH   1  16
HETATM   16  C3  HET A   1     -39.604  21.601 -14.956  1.00 -2.25     0.065 A 
HETATM   17  C8  HET A   1     -40.838  21.108 -14.157  1.00 -2.93     0.052 A 
HETATM   18  C10 HET A   1     -41.612  20.266 -15.130  1.00  0.68    -0.041 A 
HETATM   19  C13 HET A   1     -42.855  19.680 -14.919  1.00 -3.15     0.047 A 
HETATM   20  C11 HET A   1     -40.941  20.121 -16.345  1.00 -2.15     0.019 A 
HETATM   21  C16 HET A   1     -43.409  18.934 -15.958  1.00  2.20     0.102 A 
HETATM   22  C17 HET A   1     -42.711  18.771 -17.196  1.00  1.16     0.102 A 
HETATM   23  C14 HET A   1     -41.475  19.368 -17.390  1.00 -1.55     0.055 A 
HETATM   24  C9  HET A   1     -39.684  20.873 -16.319  1.00  4.84     0.164 A 
HETATM   25  O1  HET A   1     -38.835  20.964 -17.161  1.00 -4.36    -0.292 OA
BRANCH  21  26
HETATM   26  O2  HET A   1     -44.604  18.304 -15.922  1.00 -2.48    -0.353 OA
HETATM   27  C23 HET A   1     -44.959  17.657 -14.704  1.00 -2.19     0.210 C 
ENDBRANCH  21  26
BRANCH  22  28
HETATM   28  O3  HET A   1     -43.385  18.012 -18.099  1.00 -2.63    -0.353 OA
HETATM   29  C24 HET A   1     -42.739  17.781 -19.345  1.00 -2.14     0.210 C 
ENDBRANCH  22  28
ENDBRANCH   1  16
TORSDOF 6
ENDMDL
MODEL 12
REMARK VINA RESULT:    -7.540     14.922     17.178
REMARK INTER + INTRA:         -10.948
REMARK INTER:                 -10.276
REMARK INTRA:                  -0.672
REMARK UNBOUND:                -0.763
REMARK  6 active torsions:
REMARK  status: ('A' for Active; 'I' for Inactive)
REMARK    1  A    between atoms: O2_2  and  C16_20 
REMARK    2  A    between atoms: O3_3  and  C17_21 
REMARK    3  A    between atoms: N_4  and  C12_16 
REMARK    4  A    between atoms: C1_5  and  C2_6 
REMARK    5  A    between atoms: C2_6  and  C3_7 
REMARK    6  A    between atoms: C12_16  and  C15_19 
ROOT
HETATM    1  C2  HET A   1     -43.481  26.180  -2.157  1.00 -2.90     0.017 C 
ENDROOT
BRANCH   1   2
HETATM    2  C1  HET A   1     -43.895  27.455  -1.410  1.00 -0.95    -0.011 C 
HETATM    3  C5  HET A   1     -43.228  28.700  -2.020  1.00 -3.14     0.032 C 
HETATM    4  C7  HET A   1     -43.644  29.957  -1.264  1.00 -1.71     0.235 C 
HETATM    5  N   HET A   1     -43.231  29.844   0.195  1.00 -1.14    -0.067 N 
HETATM    6  C6  HET A   1     -43.891  28.628   0.826  1.00 -1.68     0.235 C 
HETATM    7  H   HET A   1     -42.186  29.726   0.232  1.00  3.03     0.280 HD
HETATM    8  C4  HET A   1     -43.494  27.360   0.072  1.00 -3.17     0.032 C 
BRANCH   5   9
HETATM    9  C12 HET A   1     -43.618  31.106   0.955  1.00 -1.78     0.273 C 
BRANCH   9  10
HETATM   10  C15 HET A   1     -42.373  31.873   1.283  1.00 -1.10    -0.033 A 
HETATM   11  C19 HET A   1     -42.417  33.263   1.399  1.00 -1.37     0.009 A 
HETATM   12  C21 HET A   1     -41.254  33.968   1.705  1.00 -1.27     0.001 A 
HETATM   13  C22 HET A   1     -40.055  33.283   1.891  1.00 -1.00     0.000 A 
HETATM   14  C20 HET A   1     -40.017  31.892   1.785  1.00 -1.23     0.001 A 
HETATM   15  C18 HET A   1     -41.176  31.182   1.486  1.00 -1.59     0.009 A 
ENDBRANCH   9  10
ENDBRANCH   5   9
ENDBRANCH   1   2
BRANCH   1  16
HETATM   16  C3  HET A   1     -44.435  25.841  -3.301  1.00 -2.25     0.065 A 
HETATM   17  C8  HET A   1     -44.804  24.337  -3.385  1.00 -2.93     0.052 A 
HETATM   18  C10 HET A   1     -44.446  23.933  -4.787  1.00  0.68    -0.041 A 
HETATM   19  C13 HET A   1     -44.683  22.700  -5.384  1.00 -3.15     0.047 A 
HETATM   20  C11 HET A   1     -43.826  24.970  -5.487  1.00 -2.15     0.019 A 
HETATM   21  C16 HET A   1     -44.274  22.527  -6.706  1.00  2.20     0.102 A 
HETATM   22  C17 HET A   1     -43.623  23.584  -7.416  1.00  1.16     0.102 A 
HETATM   23  C14 HET A   1     -43.401  24.808  -6.805  1.00 -1.55     0.055 A 
HETATM   24  C9  HET A   1     -43.742  26.166  -4.646  1.00  4.84     0.164 A 
HETATM   25  O1  HET A   1     -43.255  27.234  -4.890  1.00 -4.36    -0.292 OA
BRANCH  21  26
HETATM   26  O2  HET A   1     -44.431  21.400  -7.434  1.00 -2.48    -0.353 OA
HETATM   27  C23 HET A   1     -45.762  21.033  -7.782  1.00 -2.19     0.210 C 
ENDBRANCH  21  26
BRANCH  22  28
HETATM   28  O3  HET A   1     -43.285  23.250  -8.688  1.00 -2.63    -0.353 OA
HETATM   29  C24 HET A   1     -43.808  24.074  -9.724  1.00 -2.14     0.210 C 
ENDBRANCH  22  28
ENDBRANCH   1  16
TORSDOF 6
ENDMDL
MODEL 13
REMARK VINA RESULT:    -7.442     17.861     19.605
REMARK INTER + INTRA:         -10.816
REMARK INTER:                  -9.815
REMARK INTRA:                  -1.000
REMARK UNBOUND:                -0.763
REMARK  6 active torsions:
REMARK  status: ('A' for Active; 'I' for Inactive)
REMARK    1  A    between atoms: O2_2  and  C16_20 
REMARK    2  A    between atoms: O3_3  and  C17_21 
REMARK    3  A    between atoms: N_4  and  C12_16 
REMARK    4  A    between atoms: C1_5  and  C2_6 
REMARK    5  A    between atoms: C2_6  and  C3_7 
REMARK    6  A    between atoms: C12_16  and  C15_19 
ROOT
HETATM    1  C2  HET A   1     -44.032  31.846  -1.349  1.00 -2.90     0.017 C 
ENDROOT
BRANCH   1   2
HETATM    2  C1  HET A   1     -43.943  31.845   0.183  1.00 -0.95    -0.011 C 
HETATM    3  C5  HET A   1     -43.901  33.278   0.740  1.00 -3.14     0.032 C 
HETATM    4  C7  HET A   1     -43.806  33.261   2.262  1.00 -1.71     0.235 C 
HETATM    5  N   HET A   1     -42.545  32.531   2.694  1.00 -1.14    -0.067 N 
HETATM    6  C6  HET A   1     -42.569  31.103   2.169  1.00 -1.68     0.235 C 
HETATM    7  H   HET A   1     -41.717  33.034   2.283  1.00  3.03     0.280 HD
HETATM    8  C4  HET A   1     -42.676  31.103   0.644  1.00 -3.17     0.032 C 
BRANCH   5   9
HETATM    9  C12 HET A   1     -42.426  32.530   4.212  1.00 -1.78     0.273 C 
BRANCH   9  10
HETATM   10  C15 HET A   1     -41.036  32.117   4.588  1.00 -1.10    -0.033 A 
HETATM   11  C19 HET A   1     -39.937  32.687   3.944  1.00 -1.37     0.009 A 
HETATM   12  C21 HET A   1     -38.647  32.296   4.301  1.00 -1.27     0.001 A 
HETATM   13  C22 HET A   1     -38.463  31.337   5.295  1.00 -1.00     0.000 A 
HETATM   14  C20 HET A   1     -39.563  30.776   5.945  1.00 -1.23     0.001 A 
HETATM   15  C18 HET A   1     -40.853  31.167   5.597  1.00 -1.59     0.009 A 
ENDBRANCH   9  10
ENDBRANCH   5   9
ENDBRANCH   1   2
BRANCH   1  16
HETATM   16  C3  HET A   1     -44.806  30.643  -1.886  1.00 -2.25     0.065 A 
HETATM   17  C8  HET A   1     -45.443  29.763  -0.779  1.00 -2.93     0.052 A 
HETATM   18  C10 HET A   1     -44.919  28.380  -1.041  1.00  0.68    -0.041 A 
HETATM   19  C13 HET A   1     -45.280  27.213  -0.377  1.00 -3.15     0.047 A 
HETATM   20  C11 HET A   1     -43.987  28.363  -2.080  1.00 -2.15     0.019 A 
HETATM   21  C16 HET A   1     -44.676  26.022  -0.777  1.00  2.20     0.102 A 
HETATM   22  C17 HET A   1     -43.709  26.008  -1.831  1.00  1.16     0.102 A 
HETATM   23  C14 HET A   1     -43.366  27.182  -2.484  1.00 -1.55     0.055 A 
HETATM   24  C9  HET A   1     -43.826  29.709  -2.634  1.00  4.84     0.164 A 
HETATM   25  O1  HET A   1     -43.100  30.088  -3.510  1.00 -4.36    -0.292 OA
BRANCH  21  26
HETATM   26  O2  HET A   1     -44.915  24.804  -0.244  1.00 -2.48    -0.353 OA
HETATM   27  C23 HET A   1     -46.265  24.495   0.088  1.00 -2.19     0.210 C 
ENDBRANCH  21  26
BRANCH  22  28
HETATM   28  O3  HET A   1     -43.214  24.771  -2.091  1.00 -2.63    -0.353 OA
HETATM   29  C24 HET A   1     -42.919  24.476  -3.452  1.00 -2.14     0.210 C 
ENDBRANCH  22  28
ENDBRANCH   1  16
TORSDOF 6
ENDMDL
MODEL 14
REMARK VINA RESULT:    -7.422      5.045     10.651
REMARK INTER + INTRA:         -10.789
REMARK INTER:                 -10.267
REMARK INTRA:                  -0.522
REMARK UNBOUND:                -0.763
REMARK  6 active torsions:
REMARK  status: ('A' for Active; 'I' for Inactive)
REMARK    1  A    between atoms: O2_2  and  C16_20 
REMARK    2  A    between atoms: O3_3  and  C17_21 
REMARK    3  A    between atoms: N_4  and  C12_16 
REMARK    4  A    between atoms: C1_5  and  C2_6 
REMARK    5  A    between atoms: C2_6  and  C3_7 
REMARK    6  A    between atoms: C12_16  and  C15_19 
ROOT
HETATM    1  C2  HET A   1     -34.731  19.607 -16.886  1.00 -2.90     0.017 C 
ENDROOT
BRANCH   1   2
HETATM    2  C1  HET A   1     -34.367  18.713 -18.080  1.00 -0.95    -0.011 C 
HETATM    3  C5  HET A   1     -34.027  17.284 -17.624  1.00 -3.14     0.032 C 
HETATM    4  C7  HET A   1     -33.662  16.411 -18.820  1.00 -1.71     0.235 C 
HETATM    5  N   HET A   1     -32.458  16.996 -19.540  1.00 -1.14    -0.067 N 
HETATM    6  C6  HET A   1     -32.775  18.406 -20.016  1.00 -1.68     0.235 C 
HETATM    7  H   HET A   1     -31.656  17.036 -18.860  1.00  3.03     0.280 HD
HETATM    8  C4  HET A   1     -33.154  19.291 -18.830  1.00 -3.17     0.032 C 
BRANCH   5   9
HETATM    9  C12 HET A   1     -32.068  16.118 -20.721  1.00 -1.78     0.273 C 
BRANCH   9  10
HETATM   10  C15 HET A   1     -31.339  14.914 -20.209  1.00 -1.10    -0.033 A 
HETATM   11  C19 HET A   1     -30.045  15.040 -19.703  1.00 -1.37     0.009 A 
HETATM   12  C21 HET A   1     -29.375  13.914 -19.228  1.00 -1.27     0.001 A 
HETATM   13  C22 HET A   1     -29.999  12.669 -19.264  1.00 -1.00     0.000 A 
HETATM   14  C20 HET A   1     -31.298  12.546 -19.760  1.00 -1.23     0.001 A 
HETATM   15  C18 HET A   1     -31.974  13.669 -20.230  1.00 -1.59     0.009 A 
ENDBRANCH   9  10
ENDBRANCH   5   9
ENDBRANCH   1   2
BRANCH   1  16
HETATM   16  C3  HET A   1     -33.712  20.723 -16.665  1.00 -2.25     0.065 A 
HETATM   17  C8  HET A   1     -32.520  20.314 -15.760  1.00 -2.93     0.052 A 
HETATM   18  C10 HET A   1     -32.507  21.337 -14.660  1.00  0.68    -0.041 A 
HETATM   19  C13 HET A   1     -31.559  21.460 -13.650  1.00 -3.15     0.047 A 
HETATM   20  C11 HET A   1     -33.588  22.215 -14.750  1.00 -2.15     0.019 A 
HETATM   21  C16 HET A   1     -31.727  22.487 -12.722  1.00  2.20     0.102 A 
HETATM   22  C17 HET A   1     -32.846  23.375 -12.804  1.00  1.16     0.102 A 
HETATM   23  C14 HET A   1     -33.776  23.239 -13.823  1.00 -1.55     0.055 A 
HETATM   24  C9  HET A   1     -34.401  21.894 -15.925  1.00  4.84     0.164 A 
HETATM   25  O1  HET A   1     -35.415  22.405 -16.310  1.00 -4.36    -0.292 OA
BRANCH  21  26
HETATM   26  O2  HET A   1     -30.901  22.749 -11.685  1.00 -2.48    -0.353 OA
HETATM   27  C23 HET A   1     -29.666  23.391 -11.987  1.00 -2.19     0.210 C 
ENDBRANCH  21  26
BRANCH  22  28
HETATM   28  O3  HET A   1     -32.863  24.312 -11.822  1.00 -2.63    -0.353 OA
HETATM   29  C24 HET A   1     -34.139  24.664 -11.300  1.00 -2.14     0.210 C 
ENDBRANCH  22  28
ENDBRANCH   1  16
TORSDOF 6
ENDMDL
MODEL 15
REMARK VINA RESULT:    -7.398     33.658     35.062
REMARK INTER + INTRA:         -10.756
REMARK INTER:                 -10.014
REMARK INTRA:                  -0.742
REMARK UNBOUND:                -0.763
REMARK  6 active torsions:
REMARK  status: ('A' for Active; 'I' for Inactive)
REMARK    1  A    between atoms: O2_2  and  C16_20 
REMARK    2  A    between atoms: O3_3  and  C17_21 
REMARK    3  A    between atoms: N_4  and  C12_16 
REMARK    4  A    between atoms: C1_5  and  C2_6 
REMARK    5  A    between atoms: C2_6  and  C3_7 
REMARK    6  A    between atoms: C12_16  and  C15_19 
ROOT
HETATM    1  C2  HET A   1      -4.626  33.609   7.574  1.00 -2.90     0.017 C 
ENDROOT
BRANCH   1   2
HETATM    2  C1  HET A   1      -3.434  32.651   7.697  1.00 -0.95    -0.011 C 
HETATM    3  C5  HET A   1      -2.369  32.945   6.627  1.00 -3.14     0.032 C 
HETATM    4  C7  HET A   1      -1.195  31.980   6.758  1.00 -1.71     0.235 C 
HETATM    5  N   HET A   1      -1.679  30.550   6.588  1.00 -1.14    -0.067 N 
HETATM    6  C6  HET A   1      -2.722  30.228   7.646  1.00 -1.68     0.235 C 
HETATM    7  H   HET A   1      -2.117  30.462   5.635  1.00  3.03     0.280 HD
HETATM    8  C4  HET A   1      -3.902  31.194   7.536  1.00 -3.17     0.032 C 
BRANCH   5   9
HETATM    9  C12 HET A   1      -0.510  29.579   6.691  1.00 -1.78     0.273 C 
BRANCH   9  10
HETATM   10  C15 HET A   1      -0.404  28.811   5.409  1.00 -1.10    -0.033 A 
HETATM   11  C19 HET A   1      -1.394  27.893   5.058  1.00 -1.37     0.009 A 
HETATM   12  C21 HET A   1      -1.287  27.183   3.863  1.00 -1.27     0.001 A 
HETATM   13  C22 HET A   1      -0.192  27.393   3.027  1.00 -1.00     0.000 A 
HETATM   14  C20 HET A   1       0.791  28.321   3.374  1.00 -1.23     0.001 A 
HETATM   15  C18 HET A   1       0.686  29.036   4.564  1.00 -1.59     0.009 A 
ENDBRANCH   9  10
ENDBRANCH   5   9
ENDBRANCH   1   2
BRANCH   1  16
HETATM   16  C3  HET A   1      -4.843  34.433   8.842  1.00 -2.25     0.065 A 
HETATM   17  C8  HET A   1      -6.324  34.508   9.296  1.00 -2.93     0.052 A 
HETATM   18  C10 HET A   1      -6.620  35.977   9.394  1.00  0.68    -0.041 A 
HETATM   19  C13 HET A   1      -7.792  36.560   9.862  1.00 -3.15     0.047 A 
HETATM   20  C11 HET A   1      -5.547  36.756   8.959  1.00 -2.15     0.019 A 
HETATM   21  C16 HET A   1      -7.867  37.952   9.875  1.00  2.20     0.102 A 
HETATM   22  C17 HET A   1      -6.773  38.749   9.412  1.00  1.16     0.102 A 
HETATM   23  C14 HET A   1      -5.611  38.149   8.955  1.00 -1.55     0.055 A 
HETATM   24  C9  HET A   1      -4.427  35.898   8.566  1.00  4.84     0.164 A 
HETATM   25  O1  HET A   1      -3.357  36.202   8.120  1.00 -4.36    -0.292 OA
BRANCH  21  26
HETATM   26  O2  HET A   1      -8.925  38.677  10.300  1.00 -2.48    -0.353 OA
HETATM   27  C23 HET A   1      -9.315  38.519  11.660  1.00 -2.19     0.210 C 
ENDBRANCH  21  26
BRANCH  22  28
HETATM   28  O3  HET A   1      -7.011  40.085   9.487  1.00 -2.63    -0.353 OA
HETATM   29  C24 HET A   1      -5.910  40.907   9.856  1.00 -2.14     0.210 C 
ENDBRANCH  22  28
ENDBRANCH   1  16
TORSDOF 6
ENDMDL
MODEL 16
REMARK VINA RESULT:    -7.316     18.718     21.869
REMARK INTER + INTRA:         -10.645
REMARK INTER:                  -9.573
REMARK INTRA:                  -1.072
REMARK UNBOUND:                -0.763
REMARK  6 active torsions:
REMARK  status: ('A' for Active; 'I' for Inactive)
REMARK    1  A    between atoms: O2_2  and  C16_20 
REMARK    2  A    between atoms: O3_3  and  C17_21 
REMARK    3  A    between atoms: N_4  and  C12_16 
REMARK    4  A    between atoms: C1_5  and  C2_6 
REMARK    5  A    between atoms: C2_6  and  C3_7 
REMARK    6  A    between atoms: C12_16  and  C15_19 
ROOT
HETATM    1  C2  HET A   1     -43.908  32.414  -0.109  1.00 -2.90     0.017 C 
ENDROOT
BRANCH   1   2
HETATM    2  C1  HET A   1     -43.411  30.964  -0.187  1.00 -0.95    -0.011 C 
HETATM    3  C5  HET A   1     -43.752  30.330  -1.546  1.00 -3.14     0.032 C 
HETATM    4  C7  HET A   1     -43.258  28.888  -1.606  1.00 -1.71     0.235 C 
HETATM    5  N   HET A   1     -43.914  28.071  -0.505  1.00 -1.14    -0.067 N 
HETATM    6  C6  HET A   1     -43.578  28.668   0.853  1.00 -1.68     0.235 C 
HETATM    7  H   HET A   1     -44.956  28.104  -0.647  1.00  3.03     0.280 HD
HETATM    8  C4  HET A   1     -44.057  30.118   0.924  1.00 -3.17     0.032 C 
BRANCH   5   9
HETATM    9  C12 HET A   1     -43.448  26.622  -0.571  1.00 -1.78     0.273 C 
BRANCH   9  10
HETATM   10  C15 HET A   1     -44.426  25.837  -1.391  1.00 -1.10    -0.033 A 
HETATM   11  C19 HET A   1     -45.700  25.566  -0.892  1.00 -1.37     0.009 A 
HETATM   12  C21 HET A   1     -46.603  24.835  -1.662  1.00 -1.27     0.001 A 
HETATM   13  C22 HET A   1     -46.228  24.376  -2.923  1.00 -1.00     0.000 A 
HETATM   14  C20 HET A   1     -44.956  24.657  -3.424  1.00 -1.23     0.001 A 
HETATM   15  C18 HET A   1     -44.053  25.393  -2.662  1.00 -1.59     0.009 A 
ENDBRANCH   9  10
ENDBRANCH   5   9
ENDBRANCH   1   2
BRANCH   1  16
HETATM   16  C3  HET A   1     -43.011  33.289   0.765  1.00 -2.25     0.065 A 
HETATM   17  C8  HET A   1     -41.641  32.644   1.100  1.00 -2.93     0.052 A 
HETATM   18  C10 HET A   1     -41.564  32.664   2.600  1.00  0.68    -0.041 A 
HETATM   19  C13 HET A   1     -40.479  32.286   3.383  1.00 -3.15     0.047 A 
HETATM   20  C11 HET A   1     -42.744  33.136   3.176  1.00 -2.15     0.019 A 
HETATM   21  C16 HET A   1     -40.610  32.385   4.767  1.00  2.20     0.102 A 
HETATM   22  C17 HET A   1     -41.826  32.851   5.358  1.00  1.16     0.102 A 
HETATM   23  C14 HET A   1     -42.894  33.229   4.559  1.00 -1.55     0.055 A 
HETATM   24  C9  HET A   1     -43.702  33.507   2.132  1.00  4.84     0.164 A 
HETATM   25  O1  HET A   1     -44.822  33.922   2.241  1.00 -4.36    -0.292 OA
BRANCH  21  26
HETATM   26  O2  HET A   1     -39.656  32.065   5.670  1.00 -2.48    -0.353 OA
HETATM   27  C23 HET A   1     -38.332  31.888   5.178  1.00 -2.19     0.210 C 
ENDBRANCH  21  26
BRANCH  22  28
HETATM   28  O3  HET A   1     -41.790  32.881   6.715  1.00 -2.63    -0.353 OA
HETATM   29  C24 HET A   1     -43.040  33.000   7.384  1.00 -2.14     0.210 C 
ENDBRANCH  22  28
ENDBRANCH   1  16
TORSDOF 6
ENDMDL
MODEL 17
REMARK VINA RESULT:    -7.299     16.823     18.842
REMARK INTER + INTRA:         -10.623
REMARK INTER:                  -9.753
REMARK INTRA:                  -0.870
REMARK UNBOUND:                -0.763
REMARK  6 active torsions:
REMARK  status: ('A' for Active; 'I' for Inactive)
REMARK    1  A    between atoms: O2_2  and  C16_20 
REMARK    2  A    between atoms: O3_3  and  C17_21 
REMARK    3  A    between atoms: N_4  and  C12_16 
REMARK    4  A    between atoms: C1_5  and  C2_6 
REMARK    5  A    between atoms: C2_6  and  C3_7 
REMARK    6  A    between atoms: C12_16  and  C15_19 
ROOT
HETATM    1  C2  HET A   1     -44.246  29.720  -2.909  1.00 -2.90     0.017 C 
ENDROOT
BRANCH   1   2
HETATM    2  C1  HET A   1     -44.184  30.243  -1.467  1.00 -0.95    -0.011 C 
HETATM    3  C5  HET A   1     -44.074  31.777  -1.434  1.00 -3.14     0.032 C 
HETATM    4  C7  HET A   1     -44.007  32.280   0.004  1.00 -1.71     0.235 C 
HETATM    5  N   HET A   1     -42.796  31.686   0.704  1.00 -1.14    -0.067 N 
HETATM    6  C6  HET A   1     -42.889  30.168   0.700  1.00 -1.68     0.235 C 
HETATM    7  H   HET A   1     -41.934  31.979   0.176  1.00  3.03     0.280 HD
HETATM    8  C4  HET A   1     -42.969  29.648  -0.735  1.00 -3.17     0.032 C 
BRANCH   5   9
HETATM    9  C12 HET A   1     -42.704  32.203   2.134  1.00 -1.78     0.273 C 
BRANCH   9  10
HETATM   10  C15 HET A   1     -41.280  32.566   2.426  1.00 -1.10    -0.033 A 
HETATM   11  C19 HET A   1     -40.575  33.395   1.553  1.00 -1.37     0.009 A 
HETATM   12  C21 HET A   1     -39.251  33.727   1.834  1.00 -1.27     0.001 A 
HETATM   13  C22 HET A   1     -38.638  33.229   2.982  1.00 -1.00     0.000 A 
HETATM   14  C20 HET A   1     -39.349  32.409   3.859  1.00 -1.23     0.001 A 
HETATM   15  C18 HET A   1     -40.674  32.079   3.587  1.00 -1.59     0.009 A 
ENDBRANCH   9  10
ENDBRANCH   5   9
ENDBRANCH   1   2
BRANCH   1  16
HETATM   16  C3  HET A   1     -44.952  28.369  -3.006  1.00 -2.25     0.065 A 
HETATM   17  C8  HET A   1     -45.468  27.831  -1.646  1.00 -2.93     0.052 A 
HETATM   18  C10 HET A   1     -44.854  26.467  -1.515  1.00  0.68    -0.041 A 
HETATM   19  C13 HET A   1     -45.096  25.539  -0.509  1.00 -3.15     0.047 A 
HETATM   20  C11 HET A   1     -43.974  26.188  -2.562  1.00 -2.15     0.019 A 
HETATM   21  C16 HET A   1     -44.423  24.319  -0.573  1.00  2.20     0.102 A 
HETATM   22  C17 HET A   1     -43.508  24.041  -1.637  1.00  1.16     0.102 A 
HETATM   23  C14 HET A   1     -43.285  24.978  -2.634  1.00 -1.55     0.055 A 
HETATM   24  C9  HET A   1     -43.940  27.309  -3.504  1.00  4.84     0.164 A 
HETATM   25  O1  HET A   1     -43.287  27.445  -4.500  1.00 -4.36    -0.292 OA
BRANCH  21  26
HETATM   26  O2  HET A   1     -44.545  23.309   0.316  1.00 -2.48    -0.353 OA
HETATM   27  C23 HET A   1     -44.100  23.559   1.646  1.00 -2.19     0.210 C 
ENDBRANCH  21  26
BRANCH  22  28
HETATM   28  O3  HET A   1     -42.934  22.814  -1.547  1.00 -2.63    -0.353 OA
HETATM   29  C24 HET A   1     -42.010  22.466  -2.571  1.00 -2.14     0.210 C 
ENDBRANCH  22  28
ENDBRANCH   1  16
TORSDOF 6
ENDMDL
MODEL 18
REMARK VINA RESULT:    -7.248      5.922      9.241
REMARK INTER + INTRA:         -10.554
REMARK INTER:                  -9.713
REMARK INTRA:                  -0.842
REMARK UNBOUND:                -0.763
REMARK  6 active torsions:
REMARK  status: ('A' for Active; 'I' for Inactive)
REMARK    1  A    between atoms: O2_2  and  C16_20 
REMARK    2  A    between atoms: O3_3  and  C17_21 
REMARK    3  A    between atoms: N_4  and  C12_16 
REMARK    4  A    between atoms: C1_5  and  C2_6 
REMARK    5  A    between atoms: C2_6  and  C3_7 
REMARK    6  A    between atoms: C12_16  and  C15_19 
ROOT
HETATM    1  C2  HET A   1     -34.095  23.180 -19.310  1.00 -2.90     0.017 C 
ENDROOT
BRANCH   1   2
HETATM    2  C1  HET A   1     -34.180  22.685 -17.860  1.00 -0.95    -0.011 C 
HETATM    3  C5  HET A   1     -34.944  23.684 -16.974  1.00 -3.14     0.032 C 
HETATM    4  C7  HET A   1     -35.015  23.181 -15.535  1.00 -1.71     0.235 C 
HETATM    5  N   HET A   1     -33.611  23.006 -14.979  1.00 -1.14    -0.067 N 
HETATM    6  C6  HET A   1     -32.839  22.009 -15.829  1.00 -1.68     0.235 C 
HETATM    7  H   HET A   1     -33.124  23.938 -15.015  1.00  3.03     0.280 HD
HETATM    8  C4  HET A   1     -32.769  22.493 -17.278  1.00 -3.17     0.032 C 
BRANCH   5   9
HETATM    9  C12 HET A   1     -33.669  22.530 -13.534  1.00 -1.78     0.273 C 
BRANCH   9  10
HETATM   10  C15 HET A   1     -32.757  23.383 -12.706  1.00 -1.10    -0.033 A 
HETATM   11  C19 HET A   1     -31.446  22.973 -12.460  1.00 -1.37     0.009 A 
HETATM   12  C21 HET A   1     -30.605  23.774 -11.689  1.00 -1.27     0.001 A 
HETATM   13  C22 HET A   1     -31.078  24.976 -11.167  1.00 -1.00     0.000 A 
HETATM   14  C20 HET A   1     -32.386  25.389 -11.424  1.00 -1.23     0.001 A 
HETATM   15  C18 HET A   1     -33.228  24.596 -12.198  1.00 -1.59     0.009 A 
ENDBRANCH   9  10
ENDBRANCH   5   9
ENDBRANCH   1   2
BRANCH   1  16
HETATM   16  C3  HET A   1     -32.769  23.876 -19.609  1.00 -2.25     0.065 A 
HETATM   17  C8  HET A   1     -32.815  25.416 -19.432  1.00 -2.93     0.052 A 
HETATM   18  C10 HET A   1     -32.347  25.968 -20.748  1.00  0.68    -0.041 A 
HETATM   19  C13 HET A   1     -32.118  27.304 -21.057  1.00 -3.15     0.047 A 
HETATM   20  C11 HET A   1     -32.137  24.960 -21.691  1.00 -2.15     0.019 A 
HETATM   21  C16 HET A   1     -31.678  27.608 -22.345  1.00  2.20     0.102 A 
HETATM   22  C17 HET A   1     -31.481  26.576 -23.315  1.00  1.16     0.102 A 
HETATM   23  C14 HET A   1     -31.710  25.250 -22.986  1.00 -1.55     0.055 A 
HETATM   24  C9  HET A   1     -32.406  23.649 -21.096  1.00  4.84     0.164 A 
HETATM   25  O1  HET A   1     -32.361  22.562 -21.600  1.00 -4.36    -0.292 OA
BRANCH  21  26
HETATM   26  O2  HET A   1     -31.405  28.848 -22.807  1.00 -2.48    -0.353 OA
HETATM   27  C23 HET A   1     -30.328  29.547 -22.190  1.00 -2.19     0.210 C 
ENDBRANCH  21  26
BRANCH  22  28
HETATM   28  O3  HET A   1     -31.058  27.043 -24.519  1.00 -2.63    -0.353 OA
HETATM   29  C24 HET A   1     -30.039  26.294 -25.170  1.00 -2.14     0.210 C 
ENDBRANCH  22  28
ENDBRANCH   1  16
TORSDOF 6
ENDMDL
MODEL 19
REMARK VINA RESULT:    -7.232      5.534      9.457
REMARK INTER + INTRA:         -10.532
REMARK INTER:                  -9.719
REMARK INTRA:                  -0.813
REMARK UNBOUND:                -0.763
REMARK  6 active torsions:
REMARK  status: ('A' for Active; 'I' for Inactive)
REMARK    1  A    between atoms: O2_2  and  C16_20 
REMARK    2  A    between atoms: O3_3  and  C17_21 
REMARK    3  A    between atoms: N_4  and  C12_16 
REMARK    4  A    between atoms: C1_5  and  C2_6 
REMARK    5  A    between atoms: C2_6  and  C3_7 
REMARK    6  A    between atoms: C12_16  and  C15_19 
ROOT
HETATM    1  C2  HET A   1     -34.396  19.778 -18.592  1.00 -2.90     0.017 C 
ENDROOT
BRANCH   1   2
HETATM    2  C1  HET A   1     -34.662  20.984 -17.681  1.00 -0.95    -0.011 C 
HETATM    3  C5  HET A   1     -33.409  21.865 -17.541  1.00 -3.14     0.032 C 
HETATM    4  C7  HET A   1     -33.688  23.055 -16.629  1.00 -1.71     0.235 C 
HETATM    5  N   HET A   1     -34.100  22.565 -15.250  1.00 -1.14    -0.067 N 
HETATM    6  C6  HET A   1     -35.349  21.704 -15.360  1.00 -1.68     0.235 C 
HETATM    7  H   HET A   1     -33.315  21.983 -14.859  1.00  3.03     0.280 HD
HETATM    8  C4  HET A   1     -35.090  20.512 -16.281  1.00 -3.17     0.032 C 
BRANCH   5   9
HETATM    9  C12 HET A   1     -34.355  23.745 -14.323  1.00 -1.78     0.273 C 
BRANCH   9  10
HETATM   10  C15 HET A   1     -33.480  23.609 -13.114  1.00 -1.10    -0.033 A 
HETATM   11  C19 HET A   1     -32.417  22.705 -13.117  1.00 -1.37     0.009 A 
HETATM   12  C21 HET A   1     -31.608  22.586 -11.989  1.00 -1.27     0.001 A 
HETATM   13  C22 HET A   1     -31.866  23.367 -10.864  1.00 -1.00     0.000 A 
HETATM   14  C20 HET A   1     -32.923  24.278 -10.867  1.00 -1.23     0.001 A 
HETATM   15  C18 HET A   1     -33.730  24.406 -11.994  1.00 -1.59     0.009 A 
ENDBRANCH   9  10
ENDBRANCH   5   9
ENDBRANCH   1   2
BRANCH   1  16
HETATM   16  C3  HET A   1     -34.995  18.487 -18.036  1.00 -2.25     0.065 A 
HETATM   17  C8  HET A   1     -33.936  17.436 -17.613  1.00 -2.93     0.052 A 
HETATM   18  C10 HET A   1     -34.303  16.195 -18.375  1.00  0.68    -0.041 A 
HETATM   19  C13 HET A   1     -33.712  14.942 -18.259  1.00 -3.15     0.047 A 
HETATM   20  C11 HET A   1     -35.363  16.417 -19.256  1.00 -2.15     0.019 A 
HETATM   21  C16 HET A   1     -34.206  13.912 -19.059  1.00  2.20     0.102 A 
HETATM   22  C17 HET A   1     -35.280  14.146 -19.975  1.00  1.16     0.102 A 
HETATM   23  C14 HET A   1     -35.860  15.401 -20.071  1.00 -1.55     0.055 A 
HETATM   24  C9  HET A   1     -35.828  17.802 -19.145  1.00  4.84     0.164 A 
HETATM   25  O1  HET A   1     -36.693  18.364 -19.757  1.00 -4.36    -0.292 OA
BRANCH  21  26
HETATM   26  O2  HET A   1     -33.751  12.640 -19.070  1.00 -2.48    -0.353 OA
HETATM   27  C23 HET A   1     -32.593  12.360 -18.291  1.00 -2.19     0.210 C 
ENDBRANCH  21  26
BRANCH  22  28
HETATM   28  O3  HET A   1     -35.636  13.042 -20.681  1.00 -2.63    -0.353 OA
HETATM   29  C24 HET A   1     -36.426  13.257 -21.844  1.00 -2.14     0.210 C 
ENDBRANCH  22  28
ENDBRANCH   1  16
TORSDOF 6
ENDMDL
MODEL 20
REMARK VINA RESULT:    -7.186      4.409     10.568
REMARK INTER + INTRA:         -10.470
REMARK INTER:                  -9.646
REMARK INTRA:                  -0.824
REMARK UNBOUND:                -0.763
REMARK  6 active torsions:
REMARK  status: ('A' for Active; 'I' for Inactive)
REMARK    1  A    between atoms: O2_2  and  C16_20 
REMARK    2  A    between atoms: O3_3  and  C17_21 
REMARK    3  A    between atoms: N_4  and  C12_16 
REMARK    4  A    between atoms: C1_5  and  C2_6 
REMARK    5  A    between atoms: C2_6  and  C3_7 
REMARK    6  A    between atoms: C12_16  and  C15_19 
ROOT
HETATM    1  C2  HET A   1     -35.174  20.293 -16.038  1.00 -2.90     0.017 C 
ENDROOT
BRANCH   1   2
HETATM    2  C1  HET A   1     -34.995  19.552 -17.371  1.00 -0.95    -0.011 C 
HETATM    3  C5  HET A   1     -33.902  18.474 -17.267  1.00 -3.14     0.032 C 
HETATM    4  C7  HET A   1     -33.732  17.752 -18.599  1.00 -1.71     0.235 C 
HETATM    5  N   HET A   1     -33.339  18.746 -19.680  1.00 -1.14    -0.067 N 
HETATM    6  C6  HET A   1     -34.412  19.815 -19.814  1.00 -1.68     0.235 C 
HETATM    7  H   HET A   1     -32.434  19.201 -19.394  1.00  3.03     0.280 HD
HETATM    8  C4  HET A   1     -34.604  20.541 -18.483  1.00 -3.17     0.032 C 
BRANCH   5   9
HETATM    9  C12 HET A   1     -33.140  18.032 -21.010  1.00 -1.78     0.273 C 
BRANCH   9  10
HETATM   10  C15 HET A   1     -32.016  18.691 -21.749  1.00 -1.10    -0.033 A 
HETATM   11  C19 HET A   1     -32.216  19.175 -23.042  1.00 -1.37     0.009 A 
HETATM   12  C21 HET A   1     -31.164  19.787 -23.722  1.00 -1.27     0.001 A 
HETATM   13  C22 HET A   1     -29.919  19.910 -23.109  1.00 -1.00     0.000 A 
HETATM   14  C20 HET A   1     -29.724  19.434 -21.811  1.00 -1.23     0.001 A 
HETATM   15  C18 HET A   1     -30.773  18.828 -21.126  1.00 -1.59     0.009 A 
ENDBRANCH   9  10
ENDBRANCH   5   9
ENDBRANCH   1   2
BRANCH   1  16
HETATM   16  C3  HET A   1     -34.201  21.461 -15.888  1.00 -2.25     0.065 A 
HETATM   17  C8  HET A   1     -32.923  21.112 -15.082  1.00 -2.93     0.052 A 
HETATM   18  C10 HET A   1     -32.877  22.129 -13.977  1.00  0.68    -0.041 A 
HETATM   19  C13 HET A   1     -31.861  22.299 -13.044  1.00 -3.15     0.047 A 
HETATM   20  C11 HET A   1     -34.007  22.949 -13.975  1.00 -2.15     0.019 A 
HETATM   21  C16 HET A   1     -32.010  23.311 -12.096  1.00  2.20     0.102 A 
HETATM   22  C17 HET A   1     -33.177  24.138 -12.084  1.00  1.16     0.102 A 
HETATM   23  C14 HET A   1     -34.176  23.957 -13.027  1.00 -1.55     0.055 A 
HETATM   24  C9  HET A   1     -34.892  22.590 -15.086  1.00  4.84     0.164 A 
HETATM   25  O1  HET A   1     -35.958  23.048 -15.387  1.00 -4.36    -0.292 OA
BRANCH  21  26
HETATM   26  O2  HET A   1     -31.120  23.612 -11.125  1.00 -2.48    -0.353 OA
HETATM   27  C23 HET A   1     -29.770  23.823 -11.525  1.00 -2.19     0.210 C 
ENDBRANCH  21  26
BRANCH  22  28
HETATM   28  O3  HET A   1     -33.167  25.069 -11.095  1.00 -2.63    -0.353 OA
HETATM   29  C24 HET A   1     -32.869  26.405 -11.481  1.00 -2.14     0.210 C 
ENDBRANCH  22  28
ENDBRANCH   1  16
TORSDOF 6
ENDMDL
