@<TRIPOS>MOLECULE
galanthamine.pdb
43 46 1 0 0
SMALL
AMBER ff14SB


@<TRIPOS>ATOM
      1 O1          0.0600    0.1260    0.0240 O.3       1 HET   -0.3384
      2 O2          3.0000    0.1260    0.0240 O.3       1 HET   -0.3890
      3 O3         -0.2430    2.8730    0.0240 O.3       1 HET   -0.3466
      4 N          -1.7790   -1.4630    4.1030 N.4       1 HET    0.2478
      5 C1          0.4310   -1.3040    2.0460 C.3       1 HET    0.0483
      6 C2          0.3470   -1.2650    0.4670 C.3       1 HET    0.0805
      7 C3         -0.1580    0.0700    2.3390 C.ar      1 HET    0.0063
      8 C4         -0.2790   -2.6200    2.4910 C.3       1 HET    0.0022
      9 C5          1.6100   -1.7220   -0.2710 C.3       1 HET    0.0049
     10 C6          1.8080   -1.3220    2.6510 C.2       1 HET   -0.0725
     11 C7         -0.1250    0.8380    1.1770 C.ar      1 HET    0.1102
     12 C8         -0.7960   -2.6320    3.9210 C.3       1 HET   -0.0331
     13 C9         -0.6580    0.6100    3.5400 C.ar      1 HET    0.0027
     14 C10         2.9000   -1.2520    0.3790 C.3       1 HET    0.0746
     15 C11        -1.0490   -0.2540    4.6960 C.3       1 HET   -0.0083
     16 C12         2.9030   -1.3320    1.8740 C.2       1 HET   -0.0591
     17 C13        -0.3740    2.2280    1.2100 C.ar      1 HET    0.1051
     18 C14        -0.9250    1.9810    3.5790 C.ar      1 HET   -0.0507
     19 C15        -0.7410    2.7810    2.4280 C.ar      1 HET   -0.0286
     20 C16        -3.0320   -1.8790    4.8510 C.3       1 HET   -0.0453
     21 C17        -0.3990    4.2970    0.0240 C.3       1 HET    0.0423
     22 H21        -0.5550   -1.8010    0.0880 H         1 HET    0.0623
     23 H41         0.4670   -3.4490    2.3910 H         1 HET    0.0334
     24 H42        -1.0810   -2.8600    1.7510 H         1 HET    0.0334
     25 H51         1.5550   -1.3390   -1.3270 H         1 HET    0.0324
     26 H52         1.6050   -2.8340   -0.3210 H         1 HET    0.0324
     27 H6          1.8580   -1.3130    3.7360 H         1 HET    0.0584
     28 H81        -1.3300   -3.5990    4.1190 H         1 HET    0.0815
     29 H82         0.0260   -2.5720    4.6710 H         1 HET    0.0815
     30 H10         3.7860   -1.7880   -0.0570 H         1 HET    0.0647
     31 H111       -0.1790   -0.5960    5.3130 H         1 HET    0.0869
     32 H112       -1.7320    0.2970    5.3910 H         1 HET    0.0869
     33 H12         3.8960   -1.3580    2.3430 H         1 HET    0.0600
     34 H14        -1.2730    2.4490    4.5030 H         1 HET    0.0629
     35 H15        -0.9020    3.8600    2.5320 H         1 HET    0.0652
     36 H161       -3.9080   -1.7020    4.1850 H         1 HET    0.0777
     37 H162       -3.1670   -1.2820    5.7760 H         1 HET    0.0777
     38 H163       -3.0110   -2.9460    5.1370 H         1 HET    0.0777
     39 H22         3.8710    0.4700    0.3280 H         1 HET    0.2109
     40 H171        0.4170    4.7450    0.6140 H         1 HET    0.0536
     41 H172       -1.3890    4.5620    0.4210 H         1 HET    0.0536
     42 H173       -0.3160    4.5710   -1.0360 H         1 HET    0.0536
     43 H          -2.0790   -1.1760    3.1230 H         1 HET    0.2002
@<TRIPOS>BOND
     1    1    6 1
     2    1   11 1
     3    2   14 1
     4    2   39 1
     5    3   17 1
     6    3   21 1
     7    4   12 1
     8    4   15 1
     9    4   20 1
    10    4   43 1
    11    5    6 1
    12    5    7 1
    13    5    8 1
    14    5   10 1
    15    6    9 1
    16    6   22 1
    17    7   11 ar
    18    7   13 ar
    19    8   12 1
    20    8   23 1
    21    8   24 1
    22    9   14 1
    23    9   25 1
    24    9   26 1
    25   10   16 2
    26   10   27 1
    27   11   17 ar
    28   12   28 1
    29   12   29 1
    30   13   15 1
    31   13   18 ar
    32   14   16 1
    33   14   30 1
    34   15   31 1
    35   15   32 1
    36   16   33 1
    37   17   19 ar
    38   18   19 ar
    39   18   34 1
    40   19   35 1
    41   20   36 1
    42   20   37 1
    43   20   38 1
    44   21   40 1
    45   21   41 1
    46   21   42 1
@<TRIPOS>SUBSTRUCTURE
     1 HET     1 RESIDUE           4 A     HET     0 ROOT
