MODEL 1
REMARK VINA RESULT:    -8.257      0.000      0.000
REMARK INTER + INTRA:         -11.977
REMARK INTER:                 -11.154
REMARK INTRA:                  -0.823
REMARK UNBOUND:                -0.823
REMARK  6 active torsions:
REMARK  status: ('A' for Active; 'I' for Inactive)
REMARK    1  A    between atoms: O2_2  and  C16_20 
REMARK    2  A    between atoms: O3_3  and  C17_21 
REMARK    3  A    between atoms: N_4  and  C12_16 
REMARK    4  A    between atoms: C1_5  and  C2_6 
REMARK    5  A    between atoms: C2_6  and  C3_7 
REMARK    6  A    between atoms: C12_16  and  C15_19 
ROOT
HETATM    1  C2  HET A   1     -34.096  21.096 -17.534  1.00 -2.90     0.017 C 
ENDROOT
BRANCH   1   2
HETATM    2  C1  HET A   1     -34.348  19.828 -18.361  1.00 -0.95    -0.011 C 
HETATM    3  C5  HET A   1     -35.004  18.728 -17.509  1.00 -3.14     0.032 C 
HETATM    4  C7  HET A   1     -35.243  17.473 -18.342  1.00 -1.71     0.235 C 
HETATM    5  N   HET A   1     -33.921  16.952 -18.882  1.00 -1.14    -0.067 N 
HETATM    6  C6  HET A   1     -33.258  18.016 -19.742  1.00 -1.68     0.235 C 
HETATM    7  H   HET A   1     -33.295  16.732 -18.064  1.00  3.03     0.280 HD
HETATM    8  C4  HET A   1     -33.023  19.285 -18.925  1.00 -3.17     0.032 C 
BRANCH   5   9
HETATM    9  C12 HET A   1     -34.143  15.683 -19.694  1.00 -1.78     0.273 C 
BRANCH   9  10
HETATM   10  C15 HET A   1     -33.297  14.587 -19.121  1.00 -1.10    -0.033 A 
HETATM   11  C19 HET A   1     -33.763  13.830 -18.046  1.00 -1.37     0.009 A 
HETATM   12  C21 HET A   1     -32.968  12.813 -17.520  1.00 -1.27     0.001 A 
HETATM   13  C22 HET A   1     -31.712  12.560 -18.068  1.00 -1.00     0.000 A 
HETATM   14  C20 HET A   1     -31.253  13.311 -19.151  1.00 -1.23     0.001 A 
HETATM   15  C18 HET A   1     -32.045  14.324 -19.684  1.00 -1.59     0.009 A 
ENDBRANCH   9  10
ENDBRANCH   5   9
ENDBRANCH   1   2
BRANCH   1  16
HETATM   16  C3  HET A   1     -34.225  20.846 -16.033  1.00 -2.25     0.065 A 
HETATM   17  C8  HET A   1     -34.868  22.024 -15.255  1.00 -2.93     0.052 A 
HETATM   18  C10 HET A   1     -33.873  22.361 -14.181  1.00  0.68    -0.041 A 
HETATM   19  C13 HET A   1     -34.036  23.287 -13.157  1.00 -3.15     0.047 A 
HETATM   20  C11 HET A   1     -32.702  21.611 -14.300  1.00 -2.15     0.019 A 
HETATM   21  C16 HET A   1     -32.987  23.450 -12.254  1.00  2.20     0.102 A 
HETATM   22  C17 HET A   1     -31.780  22.694 -12.387  1.00  1.16     0.102 A 
HETATM   23  C14 HET A   1     -31.640  21.771 -13.411  1.00 -1.55     0.055 A 
HETATM   24  C9  HET A   1     -32.811  20.683 -15.428  1.00  4.84     0.164 A 
HETATM   25  O1  HET A   1     -32.003  19.905 -15.852  1.00 -4.36    -0.292 OA
BRANCH  21  26
HETATM   26  O2  HET A   1     -32.981  24.300 -11.203  1.00 -2.48    -0.353 OA
HETATM   27  C23 HET A   1     -33.133  25.687 -11.490  1.00 -2.19     0.210 C 
ENDBRANCH  21  26
BRANCH  22  28
HETATM   28  O3  HET A   1     -30.858  22.977 -11.431  1.00 -2.63    -0.353 OA
HETATM   29  C24 HET A   1     -29.671  23.630 -11.864  1.00 -2.14     0.210 C 
ENDBRANCH  22  28
ENDBRANCH   1  16
TORSDOF 6
ENDMDL
MODEL 2
REMARK VINA RESULT:    -8.208      4.404      7.080
REMARK INTER + INTRA:         -11.910
REMARK INTER:                 -10.790
REMARK INTRA:                  -1.120
REMARK UNBOUND:                -0.823
REMARK  6 active torsions:
REMARK  status: ('A' for Active; 'I' for Inactive)
REMARK    1  A    between atoms: O2_2  and  C16_20 
REMARK    2  A    between atoms: O3_3  and  C17_21 
REMARK    3  A    between atoms: N_4  and  C12_16 
REMARK    4  A    between atoms: C1_5  and  C2_6 
REMARK    5  A    between atoms: C2_6  and  C3_7 
REMARK    6  A    between atoms: C12_16  and  C15_19 
ROOT
HETATM    1  C2  HET A   1     -34.505  21.287 -17.228  1.00 -2.90     0.017 C 
ENDROOT
BRANCH   1   2
HETATM    2  C1  HET A   1     -34.266  22.758 -17.595  1.00 -0.95    -0.011 C 
HETATM    3  C5  HET A   1     -35.124  23.179 -18.800  1.00 -3.14     0.032 C 
HETATM    4  C7  HET A   1     -34.871  24.641 -19.156  1.00 -1.71     0.235 C 
HETATM    5  N   HET A   1     -33.405  24.842 -19.503  1.00 -1.14    -0.067 N 
HETATM    6  C6  HET A   1     -32.534  24.447 -18.320  1.00 -1.68     0.235 C 
HETATM    7  H   HET A   1     -33.173  24.223 -20.322  1.00  3.03     0.280 HD
HETATM    8  C4  HET A   1     -32.785  22.988 -17.944  1.00 -3.17     0.032 C 
BRANCH   5   9
HETATM    9  C12 HET A   1     -33.145  26.293 -19.886  1.00 -1.78     0.273 C 
BRANCH   9  10
HETATM   10  C15 HET A   1     -32.087  26.331 -20.946  1.00 -1.10    -0.033 A 
HETATM   11  C19 HET A   1     -31.231  27.429 -21.043  1.00 -1.37     0.009 A 
HETATM   12  C21 HET A   1     -30.250  27.455 -22.033  1.00 -1.27     0.001 A 
HETATM   13  C22 HET A   1     -30.131  26.388 -22.921  1.00 -1.00     0.000 A 
HETATM   14  C20 HET A   1     -30.981  25.286 -22.815  1.00 -1.23     0.001 A 
HETATM   15  C18 HET A   1     -31.958  25.252 -21.825  1.00 -1.59     0.009 A 
ENDBRANCH   9  10
ENDBRANCH   5   9
ENDBRANCH   1   2
BRANCH   1  16
HETATM   16  C3  HET A   1     -34.515  21.059 -15.718  1.00 -2.25     0.065 A 
HETATM   17  C8  HET A   1     -34.959  22.300 -14.900  1.00 -2.93     0.052 A 
HETATM   18  C10 HET A   1     -33.837  22.541 -13.931  1.00  0.68    -0.041 A 
HETATM   19  C13 HET A   1     -33.808  23.484 -12.910  1.00 -3.15     0.047 A 
HETATM   20  C11 HET A   1     -32.765  21.675 -14.148  1.00 -2.15     0.019 A 
HETATM   21  C16 HET A   1     -32.666  23.545 -12.112  1.00  2.20     0.102 A 
HETATM   22  C17 HET A   1     -31.560  22.669 -12.347  1.00  1.16     0.102 A 
HETATM   23  C14 HET A   1     -31.611  21.731 -13.367  1.00 -1.55     0.055 A 
HETATM   24  C9  HET A   1     -33.073  20.756 -15.246  1.00  4.84     0.164 A 
HETATM   25  O1  HET A   1     -32.392  19.898 -15.733  1.00 -4.36    -0.292 OA
BRANCH  21  26
HETATM   26  O2  HET A   1     -32.475  24.395 -11.080  1.00 -2.48    -0.353 OA
HETATM   27  C23 HET A   1     -32.716  25.777 -11.325  1.00 -2.19     0.210 C 
ENDBRANCH  21  26
BRANCH  22  28
HETATM   28  O3  HET A   1     -30.527  22.862 -11.487  1.00 -2.63    -0.353 OA
HETATM   29  C24 HET A   1     -29.404  23.576 -11.990  1.00 -2.14     0.210 C 
ENDBRANCH  22  28
ENDBRANCH   1  16
TORSDOF 6
ENDMDL
MODEL 3
REMARK VINA RESULT:    -7.985      5.513      7.313
REMARK INTER + INTRA:         -11.609
REMARK INTER:                 -10.853
REMARK INTRA:                  -0.756
REMARK UNBOUND:                -0.823
REMARK  6 active torsions:
REMARK  status: ('A' for Active; 'I' for Inactive)
REMARK    1  A    between atoms: O2_2  and  C16_20 
REMARK    2  A    between atoms: O3_3  and  C17_21 
REMARK    3  A    between atoms: N_4  and  C12_16 
REMARK    4  A    between atoms: C1_5  and  C2_6 
REMARK    5  A    between atoms: C2_6  and  C3_7 
REMARK    6  A    between atoms: C12_16  and  C15_19 
ROOT
HETATM    1  C2  HET A   1     -37.101  22.930 -13.335  1.00 -2.90     0.017 C 
ENDROOT
BRANCH   1   2
HETATM    2  C1  HET A   1     -37.894  22.570 -14.599  1.00 -0.95    -0.011 C 
HETATM    3  C5  HET A   1     -39.331  23.114 -14.530  1.00 -3.14     0.032 C 
HETATM    4  C7  HET A   1     -40.107  22.743 -15.789  1.00 -1.71     0.235 C 
HETATM    5  N   HET A   1     -40.162  21.231 -15.936  1.00 -1.14    -0.067 N 
HETATM    6  C6  HET A   1     -38.751  20.669 -16.023  1.00 -1.68     0.235 C 
HETATM    7  H   HET A   1     -40.638  20.835 -15.085  1.00  3.03     0.280 HD
HETATM    8  C4  HET A   1     -37.956  21.042 -14.773  1.00 -3.17     0.032 C 
BRANCH   5   9
HETATM    9  C12 HET A   1     -40.958  20.847 -17.176  1.00 -1.78     0.273 C 
BRANCH   9  10
HETATM   10  C15 HET A   1     -42.034  19.883 -16.781  1.00 -1.10    -0.033 A 
HETATM   11  C19 HET A   1     -42.726  19.165 -17.758  1.00 -1.37     0.009 A 
HETATM   12  C21 HET A   1     -43.725  18.271 -17.380  1.00 -1.27     0.001 A 
HETATM   13  C22 HET A   1     -44.031  18.099 -16.032  1.00 -1.00     0.000 A 
HETATM   14  C20 HET A   1     -43.330  18.810 -15.056  1.00 -1.23     0.001 A 
HETATM   15  C18 HET A   1     -42.327  19.700 -15.427  1.00 -1.59     0.009 A 
ENDBRANCH   9  10
ENDBRANCH   5   9
ENDBRANCH   1   2
BRANCH   1  16
HETATM   16  C3  HET A   1     -35.768  23.602 -13.658  1.00 -2.25     0.065 A 
HETATM   17  C8  HET A   1     -34.742  22.663 -14.345  1.00 -2.93     0.052 A 
HETATM   18  C10 HET A   1     -33.518  22.733 -13.477  1.00  0.68    -0.041 A 
HETATM   19  C13 HET A   1     -32.285  22.142 -13.728  1.00 -3.15     0.047 A 
HETATM   20  C11 HET A   1     -33.734  23.501 -12.331  1.00 -2.15     0.019 A 
HETATM   21  C16 HET A   1     -31.269  22.333 -12.792  1.00  2.20     0.102 A 
HETATM   22  C17 HET A   1     -31.497  23.104 -11.609  1.00  1.16     0.102 A 
HETATM   23  C14 HET A   1     -32.732  23.691 -11.381  1.00 -1.55     0.055 A 
HETATM   24  C9  HET A   1     -35.094  24.043 -12.337  1.00  4.84     0.164 A 
HETATM   25  O1  HET A   1     -35.646  24.719 -11.515  1.00 -4.36    -0.292 OA
BRANCH  21  26
HETATM   26  O2  HET A   1     -30.016  21.834 -12.882  1.00 -2.48    -0.353 OA
HETATM   27  C23 HET A   1     -29.726  21.011 -14.007  1.00 -2.19     0.210 C 
ENDBRANCH  21  26
BRANCH  22  28
HETATM   28  O3  HET A   1     -30.408  23.186 -10.802  1.00 -2.63    -0.353 OA
HETATM   29  C24 HET A   1     -30.560  23.936  -9.602  1.00 -2.14     0.210 C 
ENDBRANCH  22  28
ENDBRANCH   1  16
TORSDOF 6
ENDMDL
MODEL 4
REMARK VINA RESULT:    -7.848      3.453      9.316
REMARK INTER + INTRA:         -11.423
REMARK INTER:                 -10.553
REMARK INTRA:                  -0.870
REMARK UNBOUND:                -0.823
REMARK  6 active torsions:
REMARK  status: ('A' for Active; 'I' for Inactive)
REMARK    1  A    between atoms: O2_2  and  C16_20 
REMARK    2  A    between atoms: O3_3  and  C17_21 
REMARK    3  A    between atoms: N_4  and  C12_16 
REMARK    4  A    between atoms: C1_5  and  C2_6 
REMARK    5  A    between atoms: C2_6  and  C3_7 
REMARK    6  A    between atoms: C12_16  and  C15_19 
ROOT
HETATM    1  C2  HET A   1     -32.797  20.995 -18.728  1.00 -2.90     0.017 C 
ENDROOT
BRANCH   1   2
HETATM    2  C1  HET A   1     -33.383  21.322 -17.347  1.00 -0.95    -0.011 C 
HETATM    3  C5  HET A   1     -33.461  22.842 -17.120  1.00 -3.14     0.032 C 
HETATM    4  C7  HET A   1     -34.038  23.150 -15.742  1.00 -1.71     0.235 C 
HETATM    5  N   HET A   1     -33.159  22.537 -14.664  1.00 -1.14    -0.067 N 
HETATM    6  C6  HET A   1     -33.078  21.031 -14.857  1.00 -1.68     0.235 C 
HETATM    7  H   HET A   1     -32.194  22.947 -14.754  1.00  3.03     0.280 HD
HETATM    8  C4  HET A   1     -32.512  20.705 -16.239  1.00 -3.17     0.032 C 
BRANCH   5   9
HETATM    9  C12 HET A   1     -33.711  22.861 -13.282  1.00 -1.78     0.273 C 
BRANCH   9  10
HETATM   10  C15 HET A   1     -32.676  23.626 -12.515  1.00 -1.10    -0.033 A 
HETATM   11  C19 HET A   1     -31.392  23.103 -12.358  1.00 -1.37     0.009 A 
HETATM   12  C21 HET A   1     -30.436  23.822 -11.642  1.00 -1.27     0.001 A 
HETATM   13  C22 HET A   1     -30.767  25.056 -11.086  1.00 -1.00     0.000 A 
HETATM   14  C20 HET A   1     -32.049  25.582 -11.254  1.00 -1.23     0.001 A 
HETATM   15  C18 HET A   1     -33.006  24.871 -11.973  1.00 -1.59     0.009 A 
ENDBRANCH   9  10
ENDBRANCH   5   9
ENDBRANCH   1   2
BRANCH   1  16
HETATM   16  C3  HET A   1     -33.557  19.870 -19.429  1.00 -2.25     0.065 A 
HETATM   17  C8  HET A   1     -34.489  19.063 -18.488  1.00 -2.93     0.052 A 
HETATM   18  C10 HET A   1     -34.059  17.634 -18.656  1.00  0.68    -0.041 A 
HETATM   19  C13 HET A   1     -34.660  16.513 -18.097  1.00 -3.15     0.047 A 
HETATM   20  C11 HET A   1     -32.940  17.520 -19.483  1.00 -2.15     0.019 A 
HETATM   21  C16 HET A   1     -34.105  15.266 -18.381  1.00  2.20     0.102 A 
HETATM   22  C17 HET A   1     -32.947  15.151 -19.214  1.00  1.16     0.102 A 
HETATM   23  C14 HET A   1     -32.366  16.282 -19.767  1.00 -1.55     0.055 A 
HETATM   24  C9  HET A   1     -32.538  18.840 -19.973  1.00  4.84     0.164 A 
HETATM   25  O1  HET A   1     -31.615  19.141 -20.676  1.00 -4.36    -0.292 OA
BRANCH  21  26
HETATM   26  O2  HET A   1     -34.565  14.080 -17.925  1.00 -2.48    -0.353 OA
HETATM   27  C23 HET A   1     -34.733  13.948 -16.517  1.00 -2.19     0.210 C 
ENDBRANCH  21  26
BRANCH  22  28
HETATM   28  O3  HET A   1     -32.531  13.870 -19.385  1.00 -2.63    -0.353 OA
HETATM   29  C24 HET A   1     -32.319  13.443 -20.725  1.00 -2.14     0.210 C 
ENDBRANCH  22  28
ENDBRANCH   1  16
TORSDOF 6
ENDMDL
MODEL 5
REMARK VINA RESULT:    -7.825      1.276      2.142
REMARK INTER + INTRA:         -11.392
REMARK INTER:                 -11.021
REMARK INTRA:                  -0.371
REMARK UNBOUND:                -0.823
REMARK  6 active torsions:
REMARK  status: ('A' for Active; 'I' for Inactive)
REMARK    1  A    between atoms: O2_2  and  C16_20 
REMARK    2  A    between atoms: O3_3  and  C17_21 
REMARK    3  A    between atoms: N_4  and  C12_16 
REMARK    4  A    between atoms: C1_5  and  C2_6 
REMARK    5  A    between atoms: C2_6  and  C3_7 
REMARK    6  A    between atoms: C12_16  and  C15_19 
ROOT
HETATM    1  C2  HET A   1     -35.414  20.499 -16.159  1.00 -2.90     0.017 C 
ENDROOT
BRANCH   1   2
HETATM    2  C1  HET A   1     -35.102  19.604 -17.367  1.00 -0.95    -0.011 C 
HETATM    3  C5  HET A   1     -36.302  18.711 -17.725  1.00 -3.14     0.032 C 
HETATM    4  C7  HET A   1     -35.975  17.825 -18.922  1.00 -1.71     0.235 C 
HETATM    5  N   HET A   1     -34.783  16.939 -18.599  1.00 -1.14    -0.067 N 
HETATM    6  C6  HET A   1     -33.576  17.799 -18.257  1.00 -1.68     0.235 C 
HETATM    7  H   HET A   1     -35.031  16.346 -17.765  1.00  3.03     0.280 HD
HETATM    8  C4  HET A   1     -33.892  18.702 -17.065  1.00 -3.17     0.032 C 
BRANCH   5   9
HETATM    9  C12 HET A   1     -34.463  16.030 -19.778  1.00 -1.78     0.273 C 
BRANCH   9  10
HETATM   10  C15 HET A   1     -33.595  14.905 -19.300  1.00 -1.10    -0.033 A 
HETATM   11  C19 HET A   1     -34.019  14.090 -18.251  1.00 -1.37     0.009 A 
HETATM   12  C21 HET A   1     -33.205  13.046 -17.814  1.00 -1.27     0.001 A 
HETATM   13  C22 HET A   1     -31.973  12.825 -18.425  1.00 -1.00     0.000 A 
HETATM   14  C20 HET A   1     -31.556  13.635 -19.482  1.00 -1.23     0.001 A 
HETATM   15  C18 HET A   1     -32.367  14.675 -19.926  1.00 -1.59     0.009 A 
ENDBRANCH   9  10
ENDBRANCH   5   9
ENDBRANCH   1   2
BRANCH   1  16
HETATM   16  C3  HET A   1     -34.370  21.597 -15.965  1.00 -2.25     0.065 A 
HETATM   17  C8  HET A   1     -33.085  21.118 -15.239  1.00 -2.93     0.052 A 
HETATM   18  C10 HET A   1     -32.939  22.045 -14.067  1.00  0.68    -0.041 A 
HETATM   19  C13 HET A   1     -31.881  22.088 -13.166  1.00 -3.15     0.047 A 
HETATM   20  C11 HET A   1     -34.019  22.924 -13.959  1.00 -2.15     0.019 A 
HETATM   21  C16 HET A   1     -31.935  23.033 -12.142  1.00  2.20     0.102 A 
HETATM   22  C17 HET A   1     -33.051  23.920 -12.022  1.00  1.16     0.102 A 
HETATM   23  C14 HET A   1     -34.093  23.866 -12.934  1.00 -1.55     0.055 A 
HETATM   24  C9  HET A   1     -34.963  22.698 -15.055  1.00  4.84     0.164 A 
HETATM   25  O1  HET A   1     -36.011  23.237 -15.277  1.00 -4.36    -0.292 OA
BRANCH  21  26
HETATM   26  O2  HET A   1     -30.994  23.211 -11.189  1.00 -2.48    -0.353 OA
HETATM   27  C23 HET A   1     -29.741  23.742 -11.607  1.00 -2.19     0.210 C 
ENDBRANCH  21  26
BRANCH  22  28
HETATM   28  O3  HET A   1     -32.950  24.772 -10.969  1.00 -2.63    -0.353 OA
HETATM   29  C24 HET A   1     -32.696  26.138 -11.277  1.00 -2.14     0.210 C 
ENDBRANCH  22  28
ENDBRANCH   1  16
TORSDOF 6
ENDMDL
MODEL 6
REMARK VINA RESULT:    -7.807     15.790     22.156
REMARK INTER + INTRA:         -11.368
REMARK INTER:                 -10.507
REMARK INTRA:                  -0.862
REMARK UNBOUND:                -0.823
REMARK  6 active torsions:
REMARK  status: ('A' for Active; 'I' for Inactive)
REMARK    1  A    between atoms: O2_2  and  C16_20 
REMARK    2  A    between atoms: O3_3  and  C17_21 
REMARK    3  A    between atoms: N_4  and  C12_16 
REMARK    4  A    between atoms: C1_5  and  C2_6 
REMARK    5  A    between atoms: C2_6  and  C3_7 
REMARK    6  A    between atoms: C12_16  and  C15_19 
ROOT
HETATM    1  C2  HET A   1     -45.322  28.757  -1.462  1.00 -2.90     0.017 C 
ENDROOT
BRANCH   1   2
HETATM    2  C1  HET A   1     -45.123  30.090  -0.728  1.00 -0.95    -0.011 C 
HETATM    3  C5  HET A   1     -44.177  31.020  -1.506  1.00 -3.14     0.032 C 
HETATM    4  C7  HET A   1     -43.985  32.337  -0.762  1.00 -1.71     0.235 C 
HETATM    5  N   HET A   1     -43.391  32.072   0.612  1.00 -1.14    -0.067 N 
HETATM    6  C6  HET A   1     -44.317  31.167   1.410  1.00 -1.68     0.235 C 
HETATM    7  H   HET A   1     -42.465  31.589   0.483  1.00  3.03     0.280 HD
HETATM    8  C4  HET A   1     -44.529  29.846   0.670  1.00 -3.17     0.032 C 
BRANCH   5   9
HETATM    9  C12 HET A   1     -43.170  33.383   1.356  1.00 -1.78     0.273 C 
BRANCH   9  10
HETATM   10  C15 HET A   1     -41.917  33.272   2.169  1.00 -1.10    -0.033 A 
HETATM   11  C19 HET A   1     -40.670  33.408   1.558  1.00 -1.37     0.009 A 
HETATM   12  C21 HET A   1     -39.510  33.303   2.324  1.00 -1.27     0.001 A 
HETATM   13  C22 HET A   1     -39.601  33.061   3.693  1.00 -1.00     0.000 A 
HETATM   14  C20 HET A   1     -40.849  32.936   4.303  1.00 -1.23     0.001 A 
HETATM   15  C18 HET A   1     -42.011  33.046   3.545  1.00 -1.59     0.009 A 
ENDBRANCH   9  10
ENDBRANCH   5   9
ENDBRANCH   1   2
BRANCH   1  16
HETATM   16  C3  HET A   1     -44.091  28.350  -2.271  1.00 -2.25     0.065 A 
HETATM   17  C8  HET A   1     -44.393  28.049  -3.762  1.00 -2.93     0.052 A 
HETATM   18  C10 HET A   1     -43.863  26.662  -3.987  1.00  0.68    -0.041 A 
HETATM   19  C13 HET A   1     -43.805  25.979  -5.197  1.00 -3.15     0.047 A 
HETATM   20  C11 HET A   1     -43.393  26.085  -2.806  1.00 -2.15     0.019 A 
HETATM   21  C16 HET A   1     -43.269  24.692  -5.193  1.00  2.20     0.102 A 
HETATM   22  C17 HET A   1     -42.804  24.095  -3.979  1.00  1.16     0.102 A 
HETATM   23  C14 HET A   1     -42.865  24.795  -2.784  1.00 -1.55     0.055 A 
HETATM   24  C9  HET A   1     -43.526  27.030  -1.695  1.00  4.84     0.164 A 
HETATM   25  O1  HET A   1     -43.258  26.883  -0.536  1.00 -4.36    -0.292 OA
BRANCH  21  26
HETATM   26  O2  HET A   1     -43.135  23.895  -6.276  1.00 -2.48    -0.353 OA
HETATM   27  C23 HET A   1     -43.541  24.433  -7.530  1.00 -2.19     0.210 C 
ENDBRANCH  21  26
BRANCH  22  28
HETATM   28  O3  HET A   1     -42.319  22.838  -4.149  1.00 -2.63    -0.353 OA
HETATM   29  C24 HET A   1     -40.991  22.601  -3.695  1.00 -2.14     0.210 C 
ENDBRANCH  22  28
ENDBRANCH   1  16
TORSDOF 6
ENDMDL
MODEL 7
REMARK VINA RESULT:    -7.703      1.932      3.988
REMARK INTER + INTRA:         -11.227
REMARK INTER:                 -11.018
REMARK INTRA:                  -0.209
REMARK UNBOUND:                -0.823
REMARK  6 active torsions:
REMARK  status: ('A' for Active; 'I' for Inactive)
REMARK    1  A    between atoms: O2_2  and  C16_20 
REMARK    2  A    between atoms: O3_3  and  C17_21 
REMARK    3  A    between atoms: N_4  and  C12_16 
REMARK    4  A    between atoms: C1_5  and  C2_6 
REMARK    5  A    between atoms: C2_6  and  C3_7 
REMARK    6  A    between atoms: C12_16  and  C15_19 
ROOT
HETATM    1  C2  HET A   1     -35.443  17.200 -18.042  1.00 -2.90     0.017 C 
ENDROOT
BRANCH   1   2
HETATM    2  C1  HET A   1     -34.468  16.028 -18.219  1.00 -0.95    -0.011 C 
HETATM    3  C5  HET A   1     -34.499  15.489 -19.659  1.00 -3.14     0.032 C 
HETATM    4  C7  HET A   1     -33.530  14.322 -19.818  1.00 -1.71     0.235 C 
HETATM    5  N   HET A   1     -33.912  13.200 -18.866  1.00 -1.14    -0.067 N 
HETATM    6  C6  HET A   1     -33.873  13.703 -17.431  1.00 -1.68     0.235 C 
HETATM    7  H   HET A   1     -34.892  12.893 -19.096  1.00  3.03     0.280 HD
HETATM    8  C4  HET A   1     -34.831  14.882 -17.259  1.00 -3.17     0.032 C 
BRANCH   5   9
HETATM    9  C12 HET A   1     -32.967  12.018 -19.034  1.00 -1.78     0.273 C 
BRANCH   9  10
HETATM   10  C15 HET A   1     -31.615  12.402 -18.517  1.00 -1.10    -0.033 A 
HETATM   11  C19 HET A   1     -30.790  13.241 -19.267  1.00 -1.37     0.009 A 
HETATM   12  C21 HET A   1     -29.533  13.593 -18.778  1.00 -1.27     0.001 A 
HETATM   13  C22 HET A   1     -29.106  13.104 -17.544  1.00 -1.00     0.000 A 
HETATM   14  C20 HET A   1     -29.938  12.274 -16.791  1.00 -1.23     0.001 A 
HETATM   15  C18 HET A   1     -31.196  11.924 -17.272  1.00 -1.59     0.009 A 
ENDBRANCH   9  10
ENDBRANCH   5   9
ENDBRANCH   1   2
BRANCH   1  16
HETATM   16  C3  HET A   1     -34.735  18.553 -18.068  1.00 -2.25     0.065 A 
HETATM   17  C8  HET A   1     -33.370  18.561 -17.330  1.00 -2.93     0.052 A 
HETATM   18  C10 HET A   1     -33.484  19.673 -16.327  1.00  0.68    -0.041 A 
HETATM   19  C13 HET A   1     -32.479  20.143 -15.489  1.00 -3.15     0.047 A 
HETATM   20  C11 HET A   1     -34.761  20.236 -16.314  1.00 -2.15     0.019 A 
HETATM   21  C16 HET A   1     -32.790  21.194 -14.626  1.00  2.20     0.102 A 
HETATM   22  C17 HET A   1     -34.104  21.759 -14.602  1.00  1.16     0.102 A 
HETATM   23  C14 HET A   1     -35.090  21.279 -15.450  1.00 -1.55     0.055 A 
HETATM   24  C9  HET A   1     -35.607  19.591 -17.321  1.00  4.84     0.164 A 
HETATM   25  O1  HET A   1     -36.761  19.785 -17.581  1.00 -4.36    -0.292 OA
BRANCH  21  26
HETATM   26  O2  HET A   1     -31.934  21.771 -13.754  1.00 -2.48    -0.353 OA
HETATM   27  C23 HET A   1     -30.662  21.154 -13.590  1.00 -2.19     0.210 C 
ENDBRANCH  21  26
BRANCH  22  28
HETATM   28  O3  HET A   1     -34.240  22.768 -13.702  1.00 -2.63    -0.353 OA
HETATM   29  C24 HET A   1     -35.469  23.483 -13.729  1.00 -2.14     0.210 C 
ENDBRANCH  22  28
ENDBRANCH   1  16
TORSDOF 6
ENDMDL
MODEL 8
REMARK VINA RESULT:    -7.682      7.106     10.807
REMARK INTER + INTRA:         -11.200
REMARK INTER:                 -10.646
REMARK INTRA:                  -0.553
REMARK UNBOUND:                -0.823
REMARK  6 active torsions:
REMARK  status: ('A' for Active; 'I' for Inactive)
REMARK    1  A    between atoms: O2_2  and  C16_20 
REMARK    2  A    between atoms: O3_3  and  C17_21 
REMARK    3  A    between atoms: N_4  and  C12_16 
REMARK    4  A    between atoms: C1_5  and  C2_6 
REMARK    5  A    between atoms: C2_6  and  C3_7 
REMARK    6  A    between atoms: C12_16  and  C15_19 
ROOT
HETATM    1  C2  HET A   1     -38.044  22.345 -14.680  1.00 -2.90     0.017 C 
ENDROOT
BRANCH   1   2
HETATM    2  C1  HET A   1     -37.146  23.324 -13.909  1.00 -0.95    -0.011 C 
HETATM    3  C5  HET A   1     -35.700  23.285 -14.432  1.00 -3.14     0.032 C 
HETATM    4  C7  HET A   1     -34.821  24.257 -13.653  1.00 -1.71     0.235 C 
HETATM    5  N   HET A   1     -34.820  23.887 -12.179  1.00 -1.14    -0.067 N 
HETATM    6  C6  HET A   1     -36.239  23.934 -11.633  1.00 -1.68     0.235 C 
HETATM    7  H   HET A   1     -34.449  22.906 -12.086  1.00  3.03     0.280 HD
HETATM    8  C4  HET A   1     -37.136  22.973 -12.411  1.00 -3.17     0.032 C 
BRANCH   5   9
HETATM    9  C12 HET A   1     -33.923  24.835 -11.394  1.00 -1.78     0.273 C 
BRANCH   9  10
HETATM   10  C15 HET A   1     -32.494  24.442 -11.613  1.00 -1.10    -0.033 A 
HETATM   11  C19 HET A   1     -31.472  25.369 -11.405  1.00 -1.37     0.009 A 
HETATM   12  C21 HET A   1     -30.146  24.993 -11.611  1.00 -1.27     0.001 A 
HETATM   13  C22 HET A   1     -29.848  23.696 -12.024  1.00 -1.00     0.000 A 
HETATM   14  C20 HET A   1     -30.871  22.768 -12.220  1.00 -1.23     0.001 A 
HETATM   15  C18 HET A   1     -32.197  23.136 -12.011  1.00 -1.59     0.009 A 
ENDBRANCH   9  10
ENDBRANCH   5   9
ENDBRANCH   1   2
BRANCH   1  16
HETATM   16  C3  HET A   1     -39.252  21.897 -13.860  1.00 -2.25     0.065 A 
HETATM   17  C8  HET A   1     -39.797  20.501 -14.259  1.00 -2.93     0.052 A 
HETATM   18  C10 HET A   1     -41.249  20.730 -14.568  1.00  0.68    -0.041 A 
HETATM   19  C13 HET A   1     -42.197  19.762 -14.877  1.00 -3.15     0.047 A 
HETATM   20  C11 HET A   1     -41.589  22.083 -14.501  1.00 -2.15     0.019 A 
HETATM   21  C16 HET A   1     -43.502  20.186 -15.128  1.00  2.20     0.102 A 
HETATM   22  C17 HET A   1     -43.845  21.573 -15.078  1.00  1.16     0.102 A 
HETATM   23  C14 HET A   1     -42.886  22.523 -14.762  1.00 -1.55     0.055 A 
HETATM   24  C9  HET A   1     -40.422  22.877 -14.112  1.00  4.84     0.164 A 
HETATM   25  O1  HET A   1     -40.321  24.065 -13.980  1.00 -4.36    -0.292 OA
BRANCH  21  26
HETATM   26  O2  HET A   1     -44.542  19.380 -15.438  1.00 -2.48    -0.353 OA
HETATM   27  C23 HET A   1     -44.427  18.007 -15.077  1.00 -2.19     0.210 C 
ENDBRANCH  21  26
BRANCH  22  28
HETATM   28  O3  HET A   1     -45.153  21.815 -15.354  1.00 -2.63    -0.353 OA
HETATM   29  C24 HET A   1     -45.891  22.525 -14.366  1.00 -2.14     0.210 C 
ENDBRANCH  22  28
ENDBRANCH   1  16
TORSDOF 6
ENDMDL
MODEL 9
REMARK VINA RESULT:    -7.547      5.780      9.161
REMARK INTER + INTRA:         -11.017
REMARK INTER:                 -10.182
REMARK INTRA:                  -0.835
REMARK UNBOUND:                -0.823
REMARK  6 active torsions:
REMARK  status: ('A' for Active; 'I' for Inactive)
REMARK    1  A    between atoms: O2_2  and  C16_20 
REMARK    2  A    between atoms: O3_3  and  C17_21 
REMARK    3  A    between atoms: N_4  and  C12_16 
REMARK    4  A    between atoms: C1_5  and  C2_6 
REMARK    5  A    between atoms: C2_6  and  C3_7 
REMARK    6  A    between atoms: C12_16  and  C15_19 
ROOT
HETATM    1  C2  HET A   1     -36.454  23.694 -15.043  1.00 -2.90     0.017 C 
ENDROOT
BRANCH   1   2
HETATM    2  C1  HET A   1     -37.901  23.209 -15.212  1.00 -0.95    -0.011 C 
HETATM    3  C5  HET A   1     -38.853  24.383 -15.495  1.00 -3.14     0.032 C 
HETATM    4  C7  HET A   1     -40.286  23.885 -15.655  1.00 -1.71     0.235 C 
HETATM    5  N   HET A   1     -40.735  23.186 -14.382  1.00 -1.14    -0.067 N 
HETATM    6  C6  HET A   1     -39.818  22.009 -14.088  1.00 -1.68     0.235 C 
HETATM    7  H   HET A   1     -40.675  23.875 -13.589  1.00  3.03     0.280 HD
HETATM    8  C4  HET A   1     -38.375  22.490 -13.937  1.00 -3.17     0.032 C 
BRANCH   5   9
HETATM    9  C12 HET A   1     -42.175  22.708 -14.520  1.00 -1.78     0.273 C 
BRANCH   9  10
HETATM   10  C15 HET A   1     -43.040  23.508 -13.595  1.00 -1.10    -0.033 A 
HETATM   11  C19 HET A   1     -42.986  23.289 -12.218  1.00 -1.37     0.009 A 
HETATM   12  C21 HET A   1     -43.795  24.039 -11.367  1.00 -1.27     0.001 A 
HETATM   13  C22 HET A   1     -44.655  25.000 -11.894  1.00 -1.00     0.000 A 
HETATM   14  C20 HET A   1     -44.699  25.225 -13.270  1.00 -1.23     0.001 A 
HETATM   15  C18 HET A   1     -43.889  24.484 -14.125  1.00 -1.59     0.009 A 
ENDBRANCH   9  10
ENDBRANCH   5   9
ENDBRANCH   1   2
BRANCH   1  16
HETATM   16  C3  HET A   1     -35.766  23.060 -13.836  1.00 -2.25     0.065 A 
HETATM   17  C8  HET A   1     -35.121  24.088 -12.870  1.00 -2.93     0.052 A 
HETATM   18  C10 HET A   1     -33.687  23.658 -12.755  1.00  0.68    -0.041 A 
HETATM   19  C13 HET A   1     -32.718  24.204 -11.921  1.00 -3.15     0.047 A 
HETATM   20  C11 HET A   1     -33.393  22.588 -13.603  1.00 -2.15     0.019 A 
HETATM   21  C16 HET A   1     -31.437  23.654 -11.963  1.00  2.20     0.102 A 
HETATM   22  C17 HET A   1     -31.133  22.570 -12.844  1.00  1.16     0.102 A 
HETATM   23  C14 HET A   1     -32.115  22.035 -13.664  1.00 -1.55     0.055 A 
HETATM   24  C9  HET A   1     -34.596  22.178 -14.332  1.00  4.84     0.164 A 
HETATM   25  O1  HET A   1     -34.726  21.321 -15.160  1.00 -4.36    -0.292 OA
BRANCH  21  26
HETATM   26  O2  HET A   1     -30.385  24.061 -11.219  1.00 -2.48    -0.353 OA
HETATM   27  C23 HET A   1     -30.467  23.854  -9.812  1.00 -2.19     0.210 C 
ENDBRANCH  21  26
BRANCH  22  28
HETATM   28  O3  HET A   1     -29.841  22.158 -12.766  1.00 -2.63    -0.353 OA
HETATM   29  C24 HET A   1     -29.435  21.156 -13.691  1.00 -2.14     0.210 C 
ENDBRANCH  22  28
ENDBRANCH   1  16
TORSDOF 6
ENDMDL
MODEL 10
REMARK VINA RESULT:    -7.522      1.467      2.522
REMARK INTER + INTRA:         -10.983
REMARK INTER:                 -10.547
REMARK INTRA:                  -0.436
REMARK UNBOUND:                -0.823
REMARK  6 active torsions:
REMARK  status: ('A' for Active; 'I' for Inactive)
REMARK    1  A    between atoms: O2_2  and  C16_20 
REMARK    2  A    between atoms: O3_3  and  C17_21 
REMARK    3  A    between atoms: N_4  and  C12_16 
REMARK    4  A    between atoms: C1_5  and  C2_6 
REMARK    5  A    between atoms: C2_6  and  C3_7 
REMARK    6  A    between atoms: C12_16  and  C15_19 
ROOT
HETATM    1  C2  HET A   1     -34.754  19.601 -16.821  1.00 -2.90     0.017 C 
ENDROOT
BRANCH   1   2
HETATM    2  C1  HET A   1     -34.380  18.752 -18.044  1.00 -0.95    -0.011 C 
HETATM    3  C5  HET A   1     -34.122  17.288 -17.649  1.00 -3.14     0.032 C 
HETATM    4  C7  HET A   1     -33.746  16.460 -18.872  1.00 -1.71     0.235 C 
HETATM    5  N   HET A   1     -32.488  17.024 -19.512  1.00 -1.14    -0.067 N 
HETATM    6  C6  HET A   1     -32.722  18.468 -19.928  1.00 -1.68     0.235 C 
HETATM    7  H   HET A   1     -31.714  16.992 -18.800  1.00  3.03     0.280 HD
HETATM    8  C4  HET A   1     -33.112  19.310 -18.713  1.00 -3.17     0.032 C 
BRANCH   5   9
HETATM    9  C12 HET A   1     -32.087  16.188 -20.721  1.00 -1.78     0.273 C 
BRANCH   9  10
HETATM   10  C15 HET A   1     -31.261  15.029 -20.255  1.00 -1.10    -0.033 A 
HETATM   11  C19 HET A   1     -29.958  15.235 -19.800  1.00 -1.37     0.009 A 
HETATM   12  C21 HET A   1     -29.197  14.150 -19.368  1.00 -1.27     0.001 A 
HETATM   13  C22 HET A   1     -29.739  12.866 -19.395  1.00 -1.00     0.000 A 
HETATM   14  C20 HET A   1     -31.047  12.665 -19.839  1.00 -1.23     0.001 A 
HETATM   15  C18 HET A   1     -31.813  13.745 -20.266  1.00 -1.59     0.009 A 
ENDBRANCH   9  10
ENDBRANCH   5   9
ENDBRANCH   1   2
BRANCH   1  16
HETATM   16  C3  HET A   1     -33.773  20.749 -16.589  1.00 -2.25     0.065 A 
HETATM   17  C8  HET A   1     -32.541  20.358 -15.733  1.00 -2.93     0.052 A 
HETATM   18  C10 HET A   1     -32.535  21.341 -14.598  1.00  0.68    -0.041 A 
HETATM   19  C13 HET A   1     -31.563  21.468 -13.612  1.00 -3.15     0.047 A 
HETATM   20  C11 HET A   1     -33.652  22.178 -14.627  1.00 -2.15     0.019 A 
HETATM   21  C16 HET A   1     -31.744  22.455 -12.643  1.00  2.20     0.102 A 
HETATM   22  C17 HET A   1     -32.898  23.300 -12.663  1.00  1.16     0.102 A 
HETATM   23  C14 HET A   1     -33.852  23.161 -13.659  1.00 -1.55     0.055 A 
HETATM   24  C9  HET A   1     -34.486  21.865 -15.789  1.00  4.84     0.164 A 
HETATM   25  O1  HET A   1     -35.530  22.349 -16.127  1.00 -4.36    -0.292 OA
BRANCH  21  26
HETATM   26  O2  HET A   1     -30.898  22.715 -11.621  1.00 -2.48    -0.353 OA
HETATM   27  C23 HET A   1     -29.733  23.476 -11.922  1.00 -2.19     0.210 C 
ENDBRANCH  21  26
BRANCH  22  28
HETATM   28  O3  HET A   1     -32.923  24.201 -11.647  1.00 -2.63    -0.353 OA
HETATM   29  C24 HET A   1     -33.988  24.077 -10.712  1.00 -2.14     0.210 C 
ENDBRANCH  22  28
ENDBRANCH   1  16
TORSDOF 6
ENDMDL
MODEL 11
REMARK VINA RESULT:    -7.448     16.850     22.379
REMARK INTER + INTRA:         -10.884
REMARK INTER:                 -10.303
REMARK INTRA:                  -0.581
REMARK UNBOUND:                -0.823
REMARK  6 active torsions:
REMARK  status: ('A' for Active; 'I' for Inactive)
REMARK    1  A    between atoms: O2_2  and  C16_20 
REMARK    2  A    between atoms: O3_3  and  C17_21 
REMARK    3  A    between atoms: N_4  and  C12_16 
REMARK    4  A    between atoms: C1_5  and  C2_6 
REMARK    5  A    between atoms: C2_6  and  C3_7 
REMARK    6  A    between atoms: C12_16  and  C15_19 
ROOT
HETATM    1  C2  HET A   1     -43.697  29.295  -2.983  1.00 -2.90     0.017 C 
ENDROOT
BRANCH   1   2
HETATM    2  C1  HET A   1     -44.058  30.198  -1.794  1.00 -0.95    -0.011 C 
HETATM    3  C5  HET A   1     -44.037  31.683  -2.195  1.00 -3.14     0.032 C 
HETATM    4  C7  HET A   1     -44.391  32.566  -1.004  1.00 -1.71     0.235 C 
HETATM    5  N   HET A   1     -43.390  32.347   0.118  1.00 -1.14    -0.067 N 
HETATM    6  C6  HET A   1     -43.402  30.887   0.545  1.00 -1.68     0.235 C 
HETATM    7  H   HET A   1     -42.432  32.591  -0.243  1.00  3.03     0.280 HD
HETATM    8  C4  HET A   1     -43.061  29.987  -0.642  1.00 -3.17     0.032 C 
BRANCH   5   9
HETATM    9  C12 HET A   1     -43.717  33.244   1.305  1.00 -1.78     0.273 C 
BRANCH   9  10
HETATM   10  C15 HET A   1     -42.537  33.277   2.227  1.00 -1.10    -0.033 A 
HETATM   11  C19 HET A   1     -41.273  33.602   1.736  1.00 -1.37     0.009 A 
HETATM   12  C21 HET A   1     -40.181  33.630   2.602  1.00 -1.27     0.001 A 
HETATM   13  C22 HET A   1     -40.357  33.331   3.951  1.00 -1.00     0.000 A 
HETATM   14  C20 HET A   1     -41.625  33.016   4.442  1.00 -1.23     0.001 A 
HETATM   15  C18 HET A   1     -42.720  32.992   3.583  1.00 -1.59     0.009 A 
ENDBRANCH   9  10
ENDBRANCH   5   9
ENDBRANCH   1   2
BRANCH   1  16
HETATM   16  C3  HET A   1     -44.458  27.971  -2.958  1.00 -2.25     0.065 A 
HETATM   17  C8  HET A   1     -44.584  27.347  -1.544  1.00 -2.93     0.052 A 
HETATM   18  C10 HET A   1     -44.018  25.963  -1.684  1.00  0.68    -0.041 A 
HETATM   19  C13 HET A   1     -44.000  24.969  -0.713  1.00 -3.15     0.047 A 
HETATM   20  C11 HET A   1     -43.489  25.742  -2.957  1.00 -2.15     0.019 A 
HETATM   21  C16 HET A   1     -43.427  23.742  -1.048  1.00  2.20     0.102 A 
HETATM   22  C17 HET A   1     -42.869  23.523  -2.346  1.00  1.16     0.102 A 
HETATM   23  C14 HET A   1     -42.903  24.526  -3.303  1.00 -1.55     0.055 A 
HETATM   24  C9  HET A   1     -43.680  26.929  -3.795  1.00  4.84     0.164 A 
HETATM   25  O1  HET A   1     -43.335  27.123  -4.927  1.00 -4.36    -0.292 OA
BRANCH  21  26
HETATM   26  O2  HET A   1     -43.331  22.672  -0.228  1.00 -2.48    -0.353 OA
HETATM   27  C23 HET A   1     -44.219  22.626   0.884  1.00 -2.19     0.210 C 
ENDBRANCH  21  26
BRANCH  22  28
HETATM   28  O3  HET A   1     -42.347  22.279  -2.506  1.00 -2.63    -0.353 OA
HETATM   29  C24 HET A   1     -40.973  22.207  -2.869  1.00 -2.14     0.210 C 
ENDBRANCH  22  28
ENDBRANCH   1  16
TORSDOF 6
ENDMDL
MODEL 12
REMARK VINA RESULT:    -7.407     18.068     23.545
REMARK INTER + INTRA:         -10.828
REMARK INTER:                  -9.809
REMARK INTRA:                  -1.018
REMARK UNBOUND:                -0.823
REMARK  6 active torsions:
REMARK  status: ('A' for Active; 'I' for Inactive)
REMARK    1  A    between atoms: O2_2  and  C16_20 
REMARK    2  A    between atoms: O3_3  and  C17_21 
REMARK    3  A    between atoms: N_4  and  C12_16 
REMARK    4  A    between atoms: C1_5  and  C2_6 
REMARK    5  A    between atoms: C2_6  and  C3_7 
REMARK    6  A    between atoms: C12_16  and  C15_19 
ROOT
HETATM    1  C2  HET A   1     -44.024  31.831  -1.340  1.00 -2.90     0.017 C 
ENDROOT
BRANCH   1   2
HETATM    2  C1  HET A   1     -43.928  31.830   0.192  1.00 -0.95    -0.011 C 
HETATM    3  C5  HET A   1     -43.922  33.262   0.752  1.00 -3.14     0.032 C 
HETATM    4  C7  HET A   1     -43.819  33.244   2.274  1.00 -1.71     0.235 C 
HETATM    5  N   HET A   1     -42.538  32.547   2.698  1.00 -1.14    -0.067 N 
HETATM    6  C6  HET A   1     -42.526  31.121   2.170  1.00 -1.68     0.235 C 
HETATM    7  H   HET A   1     -41.725  33.073   2.285  1.00  3.03     0.280 HD
HETATM    8  C4  HET A   1     -42.640  31.121   0.646  1.00 -3.17     0.032 C 
BRANCH   5   9
HETATM    9  C12 HET A   1     -42.411  32.546   4.215  1.00 -1.78     0.273 C 
BRANCH   9  10
HETATM   10  C15 HET A   1     -41.015  32.146   4.584  1.00 -1.10    -0.033 A 
HETATM   11  C19 HET A   1     -39.925  32.713   3.924  1.00 -1.37     0.009 A 
HETATM   12  C21 HET A   1     -38.631  32.334   4.274  1.00 -1.27     0.001 A 
HETATM   13  C22 HET A   1     -38.432  31.391   5.280  1.00 -1.00     0.000 A 
HETATM   14  C20 HET A   1     -39.523  30.833   5.947  1.00 -1.23     0.001 A 
HETATM   15  C18 HET A   1     -40.818  31.211   5.605  1.00 -1.59     0.009 A 
ENDBRANCH   9  10
ENDBRANCH   5   9
ENDBRANCH   1   2
BRANCH   1  16
HETATM   16  C3  HET A   1     -44.786  30.620  -1.874  1.00 -2.25     0.065 A 
HETATM   17  C8  HET A   1     -45.446  29.756  -0.768  1.00 -2.93     0.052 A 
HETATM   18  C10 HET A   1     -44.916  28.370  -0.998  1.00  0.68    -0.041 A 
HETATM   19  C13 HET A   1     -45.291  27.213  -0.324  1.00 -3.15     0.047 A 
HETATM   20  C11 HET A   1     -43.963  28.337  -2.017  1.00 -2.15     0.019 A 
HETATM   21  C16 HET A   1     -44.678  26.016  -0.694  1.00  2.20     0.102 A 
HETATM   22  C17 HET A   1     -43.689  25.988  -1.726  1.00  1.16     0.102 A 
HETATM   23  C14 HET A   1     -43.332  27.151  -2.390  1.00 -1.55     0.055 A 
HETATM   24  C9  HET A   1     -43.790  29.675  -2.588  1.00  4.84     0.164 A 
HETATM   25  O1  HET A   1     -43.046  30.041  -3.454  1.00 -4.36    -0.292 OA
BRANCH  21  26
HETATM   26  O2  HET A   1     -44.928  24.806  -0.147  1.00 -2.48    -0.353 OA
HETATM   27  C23 HET A   1     -44.889  24.716   1.274  1.00 -2.19     0.210 C 
ENDBRANCH  21  26
BRANCH  22  28
HETATM   28  O3  HET A   1     -43.188  24.746  -1.957  1.00 -2.63    -0.353 OA
HETATM   29  C24 HET A   1     -42.916  24.412  -3.313  1.00 -2.14     0.210 C 
ENDBRANCH  22  28
ENDBRANCH   1  16
TORSDOF 6
ENDMDL
MODEL 13
REMARK VINA RESULT:    -7.395     18.589     22.857
REMARK INTER + INTRA:         -10.812
REMARK INTER:                  -9.719
REMARK INTRA:                  -1.093
REMARK UNBOUND:                -0.823
REMARK  6 active torsions:
REMARK  status: ('A' for Active; 'I' for Inactive)
REMARK    1  A    between atoms: O2_2  and  C16_20 
REMARK    2  A    between atoms: O3_3  and  C17_21 
REMARK    3  A    between atoms: N_4  and  C12_16 
REMARK    4  A    between atoms: C1_5  and  C2_6 
REMARK    5  A    between atoms: C2_6  and  C3_7 
REMARK    6  A    between atoms: C12_16  and  C15_19 
ROOT
HETATM    1  C2  HET A   1     -44.001  32.561  -0.142  1.00 -2.90     0.017 C 
ENDROOT
BRANCH   1   2
HETATM    2  C1  HET A   1     -43.473  31.121  -0.216  1.00 -0.95    -0.011 C 
HETATM    3  C5  HET A   1     -43.764  30.490  -1.588  1.00 -3.14     0.032 C 
HETATM    4  C7  HET A   1     -43.240  29.059  -1.644  1.00 -1.71     0.235 C 
HETATM    5  N   HET A   1     -43.909  28.221  -0.567  1.00 -1.14    -0.067 N 
HETATM    6  C6  HET A   1     -43.624  28.815   0.803  1.00 -1.68     0.235 C 
HETATM    7  H   HET A   1     -44.948  28.235  -0.738  1.00  3.03     0.280 HD
HETATM    8  C4  HET A   1     -44.133  30.255   0.871  1.00 -3.17     0.032 C 
BRANCH   5   9
HETATM    9  C12 HET A   1     -43.413  26.783  -0.630  1.00 -1.78     0.273 C 
BRANCH   9  10
HETATM   10  C15 HET A   1     -43.930  26.147  -1.884  1.00 -1.10    -0.033 A 
HETATM   11  C19 HET A   1     -45.303  26.084  -2.124  1.00 -1.37     0.009 A 
HETATM   12  C21 HET A   1     -45.774  25.491  -3.294  1.00 -1.27     0.001 A 
HETATM   13  C22 HET A   1     -44.872  24.962  -4.216  1.00 -1.00     0.000 A 
HETATM   14  C20 HET A   1     -43.499  25.037  -3.979  1.00 -1.23     0.001 A 
HETATM   15  C18 HET A   1     -43.023  25.633  -2.815  1.00 -1.59     0.009 A 
ENDBRANCH   9  10
ENDBRANCH   5   9
ENDBRANCH   1   2
BRANCH   1  16
HETATM   16  C3  HET A   1     -43.140  33.449   0.754  1.00 -2.25     0.065 A 
HETATM   17  C8  HET A   1     -41.711  32.897   0.997  1.00 -2.93     0.052 A 
HETATM   18  C10 HET A   1     -41.575  32.832   2.491  1.00  0.68    -0.041 A 
HETATM   19  C13 HET A   1     -40.433  32.495   3.209  1.00 -3.15     0.047 A 
HETATM   20  C11 HET A   1     -42.764  33.171   3.139  1.00 -2.15     0.019 A 
HETATM   21  C16 HET A   1     -40.514  32.497   4.601  1.00  2.20     0.102 A 
HETATM   22  C17 HET A   1     -41.738  32.827   5.264  1.00  1.16     0.102 A 
HETATM   23  C14 HET A   1     -42.865  33.166   4.530  1.00 -1.55     0.055 A 
HETATM   24  C9  HET A   1     -43.790  33.527   2.156  1.00  4.84     0.164 A 
HETATM   25  O1  HET A   1     -44.933  33.843   2.332  1.00 -4.36    -0.292 OA
BRANCH  21  26
HETATM   26  O2  HET A   1     -39.503  32.200   5.446  1.00 -2.48    -0.353 OA
HETATM   27  C23 HET A   1     -38.685  31.083   5.111  1.00 -2.19     0.210 C 
ENDBRANCH  21  26
BRANCH  22  28
HETATM   28  O3  HET A   1     -41.649  32.776   6.618  1.00 -2.63    -0.353 OA
HETATM   29  C24 HET A   1     -42.837  33.060   7.346  1.00 -2.14     0.210 C 
ENDBRANCH  22  28
ENDBRANCH   1  16
TORSDOF 6
ENDMDL
MODEL 14
REMARK VINA RESULT:    -7.358      4.621      7.655
REMARK INTER + INTRA:         -10.761
REMARK INTER:                  -9.849
REMARK INTRA:                  -0.913
REMARK UNBOUND:                -0.823
REMARK  6 active torsions:
REMARK  status: ('A' for Active; 'I' for Inactive)
REMARK    1  A    between atoms: O2_2  and  C16_20 
REMARK    2  A    between atoms: O3_3  and  C17_21 
REMARK    3  A    between atoms: N_4  and  C12_16 
REMARK    4  A    between atoms: C1_5  and  C2_6 
REMARK    5  A    between atoms: C2_6  and  C3_7 
REMARK    6  A    between atoms: C12_16  and  C15_19 
ROOT
HETATM    1  C2  HET A   1     -35.426  21.855 -16.682  1.00 -2.90     0.017 C 
ENDROOT
BRANCH   1   2
HETATM    2  C1  HET A   1     -36.913  21.550 -16.911  1.00 -0.95    -0.011 C 
HETATM    3  C5  HET A   1     -37.753  22.839 -16.915  1.00 -3.14     0.032 C 
HETATM    4  C7  HET A   1     -39.227  22.518 -17.137  1.00 -1.71     0.235 C 
HETATM    5  N   HET A   1     -39.732  21.608 -16.029  1.00 -1.14    -0.067 N 
HETATM    6  C6  HET A   1     -38.927  20.318 -16.014  1.00 -1.68     0.235 C 
HETATM    7  H   HET A   1     -39.602  22.105 -15.111  1.00  3.03     0.280 HD
HETATM    8  C4  HET A   1     -37.444  20.622 -15.804  1.00 -3.17     0.032 C 
BRANCH   5   9
HETATM    9  C12 HET A   1     -41.211  21.303 -16.226  1.00 -1.78     0.273 C 
BRANCH   9  10
HETATM   10  C15 HET A   1     -41.991  21.965 -15.132  1.00 -1.10    -0.033 A 
HETATM   11  C19 HET A   1     -41.332  22.488 -14.019  1.00 -1.37     0.009 A 
HETATM   12  C21 HET A   1     -42.066  23.102 -13.006  1.00 -1.27     0.001 A 
HETATM   13  C22 HET A   1     -43.453  23.189 -13.108  1.00 -1.00     0.000 A 
HETATM   14  C20 HET A   1     -44.109  22.675 -14.228  1.00 -1.23     0.001 A 
HETATM   15  C18 HET A   1     -43.380  22.065 -15.245  1.00 -1.59     0.009 A 
ENDBRANCH   9  10
ENDBRANCH   5   9
ENDBRANCH   1   2
BRANCH   1  16
HETATM   16  C3  HET A   1     -34.932  21.351 -15.328  1.00 -2.25     0.065 A 
HETATM   17  C8  HET A   1     -34.682  22.479 -14.292  1.00 -2.93     0.052 A 
HETATM   18  C10 HET A   1     -33.259  22.285 -13.851  1.00  0.68    -0.041 A 
HETATM   19  C13 HET A   1     -32.594  22.987 -12.853  1.00 -3.15     0.047 A 
HETATM   20  C11 HET A   1     -32.625  21.267 -14.566  1.00 -2.15     0.019 A 
HETATM   21  C16 HET A   1     -31.267  22.649 -12.592  1.00  2.20     0.102 A 
HETATM   22  C17 HET A   1     -30.613  21.619 -13.338  1.00  1.16     0.102 A 
HETATM   23  C14 HET A   1     -31.295  20.926 -14.326  1.00 -1.55     0.055 A 
HETATM   24  C9  HET A   1     -33.559  20.663 -15.519  1.00  4.84     0.164 A 
HETATM   25  O1  HET A   1     -33.371  19.788 -16.317  1.00 -4.36    -0.292 OA
BRANCH  21  26
HETATM   26  O2  HET A   1     -30.480  23.226 -11.658  1.00 -2.48    -0.353 OA
HETATM   27  C23 HET A   1     -30.447  24.650 -11.627  1.00 -2.19     0.210 C 
ENDBRANCH  21  26
BRANCH  22  28
HETATM   28  O3  HET A   1     -29.322  21.419 -12.964  1.00 -2.63    -0.353 OA
HETATM   29  C24 HET A   1     -28.725  20.192 -13.366  1.00 -2.14     0.210 C 
ENDBRANCH  22  28
ENDBRANCH   1  16
TORSDOF 6
ENDMDL
MODEL 15
REMARK VINA RESULT:    -7.343     38.795     40.285
REMARK INTER + INTRA:         -10.742
REMARK INTER:                  -9.993
REMARK INTRA:                  -0.749
REMARK UNBOUND:                -0.823
REMARK  6 active torsions:
REMARK  status: ('A' for Active; 'I' for Inactive)
REMARK    1  A    between atoms: O2_2  and  C16_20 
REMARK    2  A    between atoms: O3_3  and  C17_21 
REMARK    3  A    between atoms: N_4  and  C12_16 
REMARK    4  A    between atoms: C1_5  and  C2_6 
REMARK    5  A    between atoms: C2_6  and  C3_7 
REMARK    6  A    between atoms: C12_16  and  C15_19 
ROOT
HETATM    1  C2  HET A   1      -4.666  33.431   7.604  1.00 -2.90     0.017 C 
ENDROOT
BRANCH   1   2
HETATM    2  C1  HET A   1      -3.455  32.494   7.718  1.00 -0.95    -0.011 C 
HETATM    3  C5  HET A   1      -2.390  32.827   6.659  1.00 -3.14     0.032 C 
HETATM    4  C7  HET A   1      -1.198  31.885   6.781  1.00 -1.71     0.235 C 
HETATM    5  N   HET A   1      -1.652  30.448   6.584  1.00 -1.14    -0.067 N 
HETATM    6  C6  HET A   1      -2.695  30.087   7.630  1.00 -1.68     0.235 C 
HETATM    7  H   HET A   1      -2.083  30.367   5.627  1.00  3.03     0.280 HD
HETATM    8  C4  HET A   1      -3.893  31.031   7.529  1.00 -3.17     0.032 C 
BRANCH   5   9
HETATM    9  C12 HET A   1      -0.464  29.499   6.677  1.00 -1.78     0.273 C 
BRANCH   9  10
HETATM   10  C15 HET A   1      -0.350  28.739   5.391  1.00 -1.10    -0.033 A 
HETATM   11  C19 HET A   1      -1.361  27.859   5.005  1.00 -1.37     0.009 A 
HETATM   12  C21 HET A   1      -1.246  27.156   3.806  1.00 -1.27     0.001 A 
HETATM   13  C22 HET A   1      -0.122  27.335   3.002  1.00 -1.00     0.000 A 
HETATM   14  C20 HET A   1       0.882  28.225   3.385  1.00 -1.23     0.001 A 
HETATM   15  C18 HET A   1       0.770  28.933   4.577  1.00 -1.59     0.009 A 
ENDBRANCH   9  10
ENDBRANCH   5   9
ENDBRANCH   1   2
BRANCH   1  16
HETATM   16  C3  HET A   1      -4.788  34.369   8.803  1.00 -2.25     0.065 A 
HETATM   17  C8  HET A   1      -6.229  34.480   9.367  1.00 -2.93     0.052 A 
HETATM   18  C10 HET A   1      -6.534  35.951   9.351  1.00  0.68    -0.041 A 
HETATM   19  C13 HET A   1      -7.671  36.571   9.856  1.00 -3.15     0.047 A 
HETATM   20  C11 HET A   1      -5.508  36.690   8.759  1.00 -2.15     0.019 A 
HETATM   21  C16 HET A   1      -7.760  37.958   9.746  1.00  2.20     0.102 A 
HETATM   22  C17 HET A   1      -6.717  38.712   9.123  1.00  1.16     0.102 A 
HETATM   23  C14 HET A   1      -5.588  38.076   8.631  1.00 -1.55     0.055 A 
HETATM   24  C9  HET A   1      -4.414  35.803   8.359  1.00  4.84     0.164 A 
HETATM   25  O1  HET A   1      -3.387  36.068   7.800  1.00 -4.36    -0.292 OA
BRANCH  21  26
HETATM   26  O2  HET A   1      -8.789  38.715  10.186  1.00 -2.48    -0.353 OA
HETATM   27  C23 HET A   1      -9.194  38.535  11.539  1.00 -2.19     0.210 C 
ENDBRANCH  21  26
BRANCH  22  28
HETATM   28  O3  HET A   1      -6.963  40.048   9.091  1.00 -2.63    -0.353 OA
HETATM   29  C24 HET A   1      -6.029  40.883   9.765  1.00 -2.14     0.210 C 
ENDBRANCH  22  28
ENDBRANCH   1  16
TORSDOF 6
ENDMDL
MODEL 16
REMARK VINA RESULT:    -7.299     16.697     21.713
REMARK INTER + INTRA:         -10.683
REMARK INTER:                  -9.544
REMARK INTRA:                  -1.139
REMARK UNBOUND:                -0.823
REMARK  6 active torsions:
REMARK  status: ('A' for Active; 'I' for Inactive)
REMARK    1  A    between atoms: O2_2  and  C16_20 
REMARK    2  A    between atoms: O3_3  and  C17_21 
REMARK    3  A    between atoms: N_4  and  C12_16 
REMARK    4  A    between atoms: C1_5  and  C2_6 
REMARK    5  A    between atoms: C2_6  and  C3_7 
REMARK    6  A    between atoms: C12_16  and  C15_19 
ROOT
HETATM    1  C2  HET A   1     -45.175  28.709  -3.357  1.00 -2.90     0.017 C 
ENDROOT
BRANCH   1   2
HETATM    2  C1  HET A   1     -44.760  28.896  -1.891  1.00 -0.95    -0.011 C 
HETATM    3  C5  HET A   1     -45.641  29.946  -1.191  1.00 -3.14     0.032 C 
HETATM    4  C7  HET A   1     -45.212  30.125   0.261  1.00 -1.71     0.235 C 
HETATM    5  N   HET A   1     -43.764  30.582   0.321  1.00 -1.14    -0.067 N 
HETATM    6  C6  HET A   1     -42.869  29.552  -0.351  1.00 -1.68     0.235 C 
HETATM    7  H   HET A   1     -43.686  31.495  -0.197  1.00  3.03     0.280 HD
HETATM    8  C4  HET A   1     -43.293  29.352  -1.805  1.00 -3.17     0.032 C 
BRANCH   5   9
HETATM    9  C12 HET A   1     -43.332  30.790   1.766  1.00 -1.78     0.273 C 
BRANCH   9  10
HETATM   10  C15 HET A   1     -42.124  31.675   1.788  1.00 -1.10    -0.033 A 
HETATM   11  C19 HET A   1     -40.884  31.159   2.169  1.00 -1.37     0.009 A 
HETATM   12  C21 HET A   1     -39.765  31.991   2.186  1.00 -1.27     0.001 A 
HETATM   13  C22 HET A   1     -39.891  33.331   1.825  1.00 -1.00     0.000 A 
HETATM   14  C20 HET A   1     -41.129  33.841   1.433  1.00 -1.23     0.001 A 
HETATM   15  C18 HET A   1     -42.248  33.014   1.409  1.00 -1.59     0.009 A 
ENDBRANCH   9  10
ENDBRANCH   5   9
ENDBRANCH   1   2
BRANCH   1  16
HETATM   16  C3  HET A   1     -45.386  27.239  -3.717  1.00 -2.25     0.065 A 
HETATM   17  C8  HET A   1     -45.943  26.382  -2.551  1.00 -2.93     0.052 A 
HETATM   18  C10 HET A   1     -44.963  25.253  -2.403  1.00  0.68    -0.041 A 
HETATM   19  C13 HET A   1     -45.075  24.158  -1.554  1.00 -3.15     0.047 A 
HETATM   20  C11 HET A   1     -43.865  25.401  -3.253  1.00 -2.15     0.019 A 
HETATM   21  C16 HET A   1     -44.051  23.213  -1.571  1.00  2.20     0.102 A 
HETATM   22  C17 HET A   1     -42.918  23.374  -2.429  1.00  1.16     0.102 A 
HETATM   23  C14 HET A   1     -42.827  24.470  -3.273  1.00 -1.55     0.055 A 
HETATM   24  C9  HET A   1     -44.018  26.608  -4.069  1.00  4.84     0.164 A 
HETATM   25  O1  HET A   1     -43.272  27.073  -4.884  1.00 -4.36    -0.292 OA
BRANCH  21  26
HETATM   26  O2  HET A   1     -44.005  22.093  -0.816  1.00 -2.48    -0.353 OA
HETATM   27  C23 HET A   1     -44.132  22.255   0.593  1.00 -2.19     0.210 C 
ENDBRANCH  21  26
BRANCH  22  28
HETATM   28  O3  HET A   1     -42.011  22.369  -2.318  1.00 -2.63    -0.353 OA
HETATM   29  C24 HET A   1     -40.771  22.554  -2.991  1.00 -2.14     0.210 C 
ENDBRANCH  22  28
ENDBRANCH   1  16
TORSDOF 6
ENDMDL
MODEL 17
REMARK VINA RESULT:    -7.244     16.085     22.441
REMARK INTER + INTRA:         -10.607
REMARK INTER:                 -10.419
REMARK INTRA:                  -0.188
REMARK UNBOUND:                -0.823
REMARK  6 active torsions:
REMARK  status: ('A' for Active; 'I' for Inactive)
REMARK    1  A    between atoms: O2_2  and  C16_20 
REMARK    2  A    between atoms: O3_3  and  C17_21 
REMARK    3  A    between atoms: N_4  and  C12_16 
REMARK    4  A    between atoms: C1_5  and  C2_6 
REMARK    5  A    between atoms: C2_6  and  C3_7 
REMARK    6  A    between atoms: C12_16  and  C15_19 
ROOT
HETATM    1  C2  HET A   1     -44.440  29.222  -1.285  1.00 -2.90     0.017 C 
ENDROOT
BRANCH   1   2
HETATM    2  C1  HET A   1     -43.788  30.297  -0.404  1.00 -0.95    -0.011 C 
HETATM    3  C5  HET A   1     -44.192  30.130   1.070  1.00 -3.14     0.032 C 
HETATM    4  C7  HET A   1     -43.542  31.209   1.931  1.00 -1.71     0.235 C 
HETATM    5  N   HET A   1     -43.980  32.584   1.455  1.00 -1.14    -0.067 N 
HETATM    6  C6  HET A   1     -43.577  32.781   0.002  1.00 -1.68     0.235 C 
HETATM    7  H   HET A   1     -45.028  32.640   1.532  1.00  3.03     0.280 HD
HETATM    8  C4  HET A   1     -44.212  31.700  -0.873  1.00 -3.17     0.032 C 
BRANCH   5   9
HETATM    9  C12 HET A   1     -43.358  33.669   2.324  1.00 -1.78     0.273 C 
BRANCH   9  10
HETATM   10  C15 HET A   1     -41.915  33.336   2.555  1.00 -1.10    -0.033 A 
HETATM   11  C19 HET A   1     -40.956  33.674   1.599  1.00 -1.37     0.009 A 
HETATM   12  C21 HET A   1     -39.617  33.360   1.823  1.00 -1.27     0.001 A 
HETATM   13  C22 HET A   1     -39.243  32.709   2.997  1.00 -1.00     0.000 A 
HETATM   14  C20 HET A   1     -40.202  32.382   3.956  1.00 -1.23     0.001 A 
HETATM   15  C18 HET A   1     -41.541  32.698   3.741  1.00 -1.59     0.009 A 
ENDBRANCH   9  10
ENDBRANCH   5   9
ENDBRANCH   1   2
BRANCH   1  16
HETATM   16  C3  HET A   1     -43.408  28.364  -2.014  1.00 -2.25     0.065 A 
HETATM   17  C8  HET A   1     -43.734  28.128  -3.512  1.00 -2.93     0.052 A 
HETATM   18  C10 HET A   1     -43.734  26.635  -3.673  1.00  0.68    -0.041 A 
HETATM   19  C13 HET A   1     -43.876  25.926  -4.860  1.00 -3.15     0.047 A 
HETATM   20  C11 HET A   1     -43.557  25.978  -2.454  1.00 -2.15     0.019 A 
HETATM   21  C16 HET A   1     -43.844  24.534  -4.795  1.00  2.20     0.102 A 
HETATM   22  C17 HET A   1     -43.681  23.862  -3.543  1.00  1.16     0.102 A 
HETATM   23  C14 HET A   1     -43.535  24.587  -2.371  1.00 -1.55     0.055 A 
HETATM   24  C9  HET A   1     -43.386  26.955  -1.376  1.00  4.84     0.164 A 
HETATM   25  O1  HET A   1     -43.239  26.770  -0.200  1.00 -4.36    -0.292 OA
BRANCH  21  26
HETATM   26  O2  HET A   1     -43.963  23.696  -5.849  1.00 -2.48    -0.353 OA
HETATM   27  C23 HET A   1     -43.553  24.192  -7.120  1.00 -2.19     0.210 C 
ENDBRANCH  21  26
BRANCH  22  28
HETATM   28  O3  HET A   1     -43.678  22.508  -3.655  1.00 -2.63    -0.353 OA
HETATM   29  C24 HET A   1     -44.725  21.812  -2.989  1.00 -2.14     0.210 C 
ENDBRANCH  22  28
ENDBRANCH   1  16
TORSDOF 6
ENDMDL
MODEL 18
REMARK VINA RESULT:    -7.211      5.905      9.651
REMARK INTER + INTRA:         -10.563
REMARK INTER:                  -9.688
REMARK INTRA:                  -0.875
REMARK UNBOUND:                -0.823
REMARK  6 active torsions:
REMARK  status: ('A' for Active; 'I' for Inactive)
REMARK    1  A    between atoms: O2_2  and  C16_20 
REMARK    2  A    between atoms: O3_3  and  C17_21 
REMARK    3  A    between atoms: N_4  and  C12_16 
REMARK    4  A    between atoms: C1_5  and  C2_6 
REMARK    5  A    between atoms: C2_6  and  C3_7 
REMARK    6  A    between atoms: C12_16  and  C15_19 
ROOT
HETATM    1  C2  HET A   1     -34.097  23.319 -19.283  1.00 -2.90     0.017 C 
ENDROOT
BRANCH   1   2
HETATM    2  C1  HET A   1     -34.149  22.790 -17.843  1.00 -0.95    -0.011 C 
HETATM    3  C5  HET A   1     -34.816  23.805 -16.899  1.00 -3.14     0.032 C 
HETATM    4  C7  HET A   1     -34.855  23.268 -15.472  1.00 -1.71     0.235 C 
HETATM    5  N   HET A   1     -33.442  22.999 -14.983  1.00 -1.14    -0.067 N 
HETATM    6  C6  HET A   1     -32.765  21.984 -15.890  1.00 -1.68     0.235 C 
HETATM    7  H   HET A   1     -32.904  23.903 -15.016  1.00  3.03     0.280 HD
HETATM    8  C4  HET A   1     -32.728  22.502 -17.327  1.00 -3.17     0.032 C 
BRANCH   5   9
HETATM    9  C12 HET A   1     -33.466  22.487 -13.548  1.00 -1.78     0.273 C 
BRANCH   9  10
HETATM   10  C15 HET A   1     -32.565  23.344 -12.713  1.00 -1.10    -0.033 A 
HETATM   11  C19 HET A   1     -33.041  24.535 -12.165  1.00 -1.37     0.009 A 
HETATM   12  C21 HET A   1     -32.194  25.326 -11.389  1.00 -1.27     0.001 A 
HETATM   13  C22 HET A   1     -30.878  24.924 -11.168  1.00 -1.00     0.000 A 
HETATM   14  C20 HET A   1     -30.408  23.727 -11.708  1.00 -1.23     0.001 A 
HETATM   15  C18 HET A   1     -31.251  22.930 -12.479  1.00 -1.59     0.009 A 
ENDBRANCH   9  10
ENDBRANCH   5   9
ENDBRANCH   1   2
BRANCH   1  16
HETATM   16  C3  HET A   1     -32.747  23.949 -19.621  1.00 -2.25     0.065 A 
HETATM   17  C8  HET A   1     -32.725  25.494 -19.486  1.00 -2.93     0.052 A 
HETATM   18  C10 HET A   1     -32.255  25.988 -20.824  1.00  0.68    -0.041 A 
HETATM   19  C13 HET A   1     -31.974  27.304 -21.174  1.00 -3.15     0.047 A 
HETATM   20  C11 HET A   1     -32.104  24.947 -21.742  1.00 -2.15     0.019 A 
HETATM   21  C16 HET A   1     -31.543  27.554 -22.476  1.00  2.20     0.102 A 
HETATM   22  C17 HET A   1     -31.406  26.488 -23.420  1.00  1.16     0.102 A 
HETATM   23  C14 HET A   1     -31.686  25.182 -23.051  1.00 -1.55     0.055 A 
HETATM   24  C9  HET A   1     -32.419  23.665 -21.106  1.00  4.84     0.164 A 
HETATM   25  O1  HET A   1     -32.430  22.564 -21.581  1.00 -4.36    -0.292 OA
BRANCH  21  26
HETATM   26  O2  HET A   1     -31.224  28.768 -22.977  1.00 -2.48    -0.353 OA
HETATM   27  C23 HET A   1     -30.447  29.627 -22.149  1.00 -2.19     0.210 C 
ENDBRANCH  21  26
BRANCH  22  28
HETATM   28  O3  HET A   1     -30.983  26.903 -24.643  1.00 -2.63    -0.353 OA
HETATM   29  C24 HET A   1     -29.772  26.333 -25.125  1.00 -2.14     0.210 C 
ENDBRANCH  22  28
ENDBRANCH   1  16
TORSDOF 6
ENDMDL
MODEL 19
REMARK VINA RESULT:    -7.128      6.662     10.813
REMARK INTER + INTRA:         -10.451
REMARK INTER:                  -9.733
REMARK INTRA:                  -0.718
REMARK UNBOUND:                -0.823
REMARK  6 active torsions:
REMARK  status: ('A' for Active; 'I' for Inactive)
REMARK    1  A    between atoms: O2_2  and  C16_20 
REMARK    2  A    between atoms: O3_3  and  C17_21 
REMARK    3  A    between atoms: N_4  and  C12_16 
REMARK    4  A    between atoms: C1_5  and  C2_6 
REMARK    5  A    between atoms: C2_6  and  C3_7 
REMARK    6  A    between atoms: C12_16  and  C15_19 
ROOT
HETATM    1  C2  HET A   1     -38.611  20.301 -15.570  1.00 -2.90     0.017 C 
ENDROOT
BRANCH   1   2
HETATM    2  C1  HET A   1     -37.649  21.492 -15.464  1.00 -0.95    -0.011 C 
HETATM    3  C5  HET A   1     -36.198  21.064 -15.740  1.00 -3.14     0.032 C 
HETATM    4  C7  HET A   1     -35.255  22.257 -15.625  1.00 -1.71     0.235 C 
HETATM    5  N   HET A   1     -35.334  22.846 -14.226  1.00 -1.14    -0.067 N 
HETATM    6  C6  HET A   1     -36.758  23.293 -13.933  1.00 -1.68     0.235 C 
HETATM    7  H   HET A   1     -35.061  22.098 -13.538  1.00  3.03     0.280 HD
HETATM    8  C4  HET A   1     -37.719  22.110 -14.057  1.00 -3.17     0.032 C 
BRANCH   5   9
HETATM    9  C12 HET A   1     -34.376  24.022 -14.091  1.00 -1.78     0.273 C 
BRANCH   9  10
HETATM   10  C15 HET A   1     -33.433  23.749 -12.959  1.00 -1.10    -0.033 A 
HETATM   11  C19 HET A   1     -32.472  22.744 -13.075  1.00 -1.37     0.009 A 
HETATM   12  C21 HET A   1     -31.598  22.498 -12.017  1.00 -1.27     0.001 A 
HETATM   13  C22 HET A   1     -31.690  23.254 -10.850  1.00 -1.00     0.000 A 
HETATM   14  C20 HET A   1     -32.644  24.267 -10.742  1.00 -1.23     0.001 A 
HETATM   15  C18 HET A   1     -33.516  24.521 -11.797  1.00 -1.59     0.009 A 
ENDBRANCH   9  10
ENDBRANCH   5   9
ENDBRANCH   1   2
BRANCH   1  16
HETATM   16  C3  HET A   1     -40.059  20.740 -15.781  1.00 -2.25     0.065 A 
HETATM   17  C8  HET A   1     -41.045  20.178 -14.723  1.00 -2.93     0.052 A 
HETATM   18  C10 HET A   1     -42.106  19.479 -15.523  1.00  0.68    -0.041 A 
HETATM   19  C13 HET A   1     -43.270  18.898 -15.033  1.00 -3.15     0.047 A 
HETATM   20  C11 HET A   1     -41.812  19.471 -16.887  1.00 -2.15     0.019 A 
HETATM   21  C16 HET A   1     -44.134  18.298 -15.948  1.00  2.20     0.102 A 
HETATM   22  C17 HET A   1     -43.823  18.275 -17.344  1.00  1.16     0.102 A 
HETATM   23  C14 HET A   1     -42.660  18.865 -17.813  1.00 -1.55     0.055 A 
HETATM   24  C9  HET A   1     -40.559  20.187 -17.137  1.00  4.84     0.164 A 
HETATM   25  O1  HET A   1     -39.977  20.363 -18.170  1.00 -4.36    -0.292 OA
BRANCH  21  26
HETATM   26  O2  HET A   1     -45.304  17.695 -15.642  1.00 -2.48    -0.353 OA
HETATM   27  C23 HET A   1     -45.508  17.326 -14.282  1.00 -2.19     0.210 C 
ENDBRANCH  21  26
BRANCH  22  28
HETATM   28  O3  HET A   1     -44.764  17.647 -18.095  1.00 -2.63    -0.353 OA
HETATM   29  C24 HET A   1     -44.364  16.445 -18.743  1.00 -2.14     0.210 C 
ENDBRANCH  22  28
ENDBRANCH   1  16
TORSDOF 6
ENDMDL
MODEL 20
REMARK VINA RESULT:    -7.022      5.234      9.006
REMARK INTER + INTRA:         -10.307
REMARK INTER:                  -9.404
REMARK INTRA:                  -0.904
REMARK UNBOUND:                -0.823
REMARK  6 active torsions:
REMARK  status: ('A' for Active; 'I' for Inactive)
REMARK    1  A    between atoms: O2_2  and  C16_20 
REMARK    2  A    between atoms: O3_3  and  C17_21 
REMARK    3  A    between atoms: N_4  and  C12_16 
REMARK    4  A    between atoms: C1_5  and  C2_6 
REMARK    5  A    between atoms: C2_6  and  C3_7 
REMARK    6  A    between atoms: C12_16  and  C15_19 
ROOT
HETATM    1  C2  HET A   1     -36.908  21.830 -14.735  1.00 -2.90     0.017 C 
ENDROOT
BRANCH   1   2
HETATM    2  C1  HET A   1     -38.008  22.211 -15.736  1.00 -0.95    -0.011 C 
HETATM    3  C5  HET A   1     -37.458  23.116 -16.852  1.00 -3.14     0.032 C 
HETATM    4  C7  HET A   1     -38.563  23.490 -17.834  1.00 -1.71     0.235 C 
HETATM    5  N   HET A   1     -39.673  24.230 -17.106  1.00 -1.14    -0.067 N 
HETATM    6  C6  HET A   1     -40.246  23.350 -16.006  1.00 -1.68     0.235 C 
HETATM    7  H   HET A   1     -39.261  25.097 -16.673  1.00  3.03     0.280 HD
HETATM    8  C4  HET A   1     -39.148  22.956 -15.019  1.00 -3.17     0.032 C 
BRANCH   5   9
HETATM    9  C12 HET A   1     -40.770  24.633 -18.082  1.00 -1.78     0.273 C 
BRANCH   9  10
HETATM   10  C15 HET A   1     -40.950  26.119 -18.021  1.00 -1.10    -0.033 A 
HETATM   11  C19 HET A   1     -41.678  26.695 -16.979  1.00 -1.37     0.009 A 
HETATM   12  C21 HET A   1     -41.840  28.079 -16.931  1.00 -1.27     0.001 A 
HETATM   13  C22 HET A   1     -41.276  28.878 -17.923  1.00 -1.00     0.000 A 
HETATM   14  C20 HET A   1     -40.539  28.301 -18.958  1.00 -1.23     0.001 A 
HETATM   15  C18 HET A   1     -40.370  26.920 -19.008  1.00 -1.59     0.009 A 
ENDBRANCH   9  10
ENDBRANCH   5   9
ENDBRANCH   1   2
BRANCH   1  16
HETATM   16  C3  HET A   1     -35.571  22.494 -15.061  1.00 -2.25     0.065 A 
HETATM   17  C8  HET A   1     -34.394  21.495 -15.202  1.00 -2.93     0.052 A 
HETATM   18  C10 HET A   1     -33.356  21.987 -14.235  1.00  0.68    -0.041 A 
HETATM   19  C13 HET A   1     -32.071  21.483 -14.064  1.00 -3.15     0.047 A 
HETATM   20  C11 HET A   1     -33.816  23.069 -13.482  1.00 -2.15     0.019 A 
HETATM   21  C16 HET A   1     -31.256  22.088 -13.108  1.00  2.20     0.102 A 
HETATM   22  C17 HET A   1     -31.735  23.185 -12.325  1.00  1.16     0.102 A 
HETATM   23  C14 HET A   1     -33.017  23.677 -12.514  1.00 -1.55     0.055 A 
HETATM   24  C9  HET A   1     -35.175  23.426 -13.892  1.00  4.84     0.164 A 
HETATM   25  O1  HET A   1     -35.901  24.276 -13.457  1.00 -4.36    -0.292 OA
BRANCH  21  26
HETATM   26  O2  HET A   1     -29.986  21.727 -12.819  1.00 -2.48    -0.353 OA
HETATM   27  C23 HET A   1     -29.351  20.819 -13.713  1.00 -2.19     0.210 C 
ENDBRANCH  21  26
BRANCH  22  28
HETATM   28  O3  HET A   1     -30.819  23.653 -11.438  1.00 -2.63    -0.353 OA
HETATM   29  C24 HET A   1     -30.644  25.064 -11.388  1.00 -2.14     0.210 C 
ENDBRANCH  22  28
ENDBRANCH   1  16
TORSDOF 6
ENDMDL
