@<TRIPOS>MOLECULE
silimarinaPM7.pdb
57 61 1 0 0
SMALL
AMBER ff14SB


@<TRIPOS>ATOM
      1 O1         -0.0860    0.0620    0.4390 O.3       1 HET   -0.3326
      2 O2          2.7810    0.0620    0.4390 O.3       1 HET   -0.3346
      3 O3          0.7770    5.9130    0.4390 O.3       1 HET   -0.3340
      4 O4         -1.6440    4.0630    2.4480 O.3       1 HET   -0.3818
      5 O5          2.6940   -3.3870    1.1520 O.3       1 HET   -0.3935
      6 O6         -2.2410    6.6140    3.0330 O.2       1 HET   -0.2909
      7 O7         -1.2620    9.1010    3.3190 O.3       1 HET   -0.3600
      8 O8         -2.3590   -3.3210    2.9300 O.3       1 HET   -0.3466
      9 O9          2.1840   10.2960    0.2130 O.3       1 HET   -0.3608
     10 O10        -2.4990   -5.5660    1.1460 O.3       1 HET   -0.3582
     11 C1          0.6840   -1.0640   -0.0120 C.3       1 HET    0.1183
     12 C2          2.0180   -1.1080    0.7570 C.3       1 HET    0.1181
     13 C3         -0.1300    4.8680    0.8340 C.3       1 HET    0.1226
     14 C4          0.6550    3.5960    0.7030 C.ar      1 HET   -0.0129
     15 C5         -0.6420    5.0350    2.2780 C.3       1 HET    0.1478
     16 C6          0.6490    1.2100    0.5130 C.ar      1 HET    0.1065
     17 C7          2.0520    1.2120    0.5310 C.ar      1 HET    0.1058
     18 C8         -0.1650   -2.2610    0.2880 C.ar      1 HET   -0.0133
     19 C9         -0.0620    2.4010    0.6070 C.ar      1 HET   -0.0231
     20 C10         2.9300   -2.2680    0.3320 C.3       1 HET    0.0728
     21 C11         2.0500    3.6020    0.7010 C.ar      1 HET   -0.0535
     22 C12        -1.1850    6.4510    2.4730 C.2       1 HET    0.1991
     23 C13         2.7610    2.4060    0.6150 C.ar      1 HET   -0.0287
     24 C14        -0.3300    7.4840    1.9230 C.ar      1 HET    0.0809
     25 C15         0.6050    7.1520    0.9240 C.ar      1 HET    0.0921
     26 C16        -0.9230   -2.2950    1.4580 C.ar      1 HET   -0.0232
     27 C17        -0.1790   -3.3320   -0.6040 C.ar      1 HET   -0.0535
     28 C18        -0.3870    8.8270    2.3380 C.ar      1 HET    0.0874
     29 C19         1.4530    8.1020    0.3480 C.ar      1 HET   -0.0007
     30 C20        -1.7030   -3.4190    1.7490 C.ar      1 HET    0.1048
     31 C21        -0.9520   -4.4570   -0.3230 C.ar      1 HET   -0.0290
     32 C22         1.3450    9.4190    0.8000 C.ar      1 HET    0.0765
     33 C23         0.4370    9.8140    1.7900 C.ar      1 HET   -0.0010
     34 C24        -1.7100   -4.4970    0.8430 C.ar      1 HET    0.1015
     35 C25        -3.2370   -4.3830    3.2890 C.3       1 HET    0.0423
     36 H1          0.8540   -0.9180   -1.1050 H         1 HET    0.0690
     37 H2          1.8460   -1.1160    1.8590 H         1 HET    0.0666
     38 H3         -0.9720    4.9180    0.1020 H         1 HET    0.0694
     39 H51         0.1480    4.8090    3.0320 H         1 HET    0.0720
     40 H91        -1.1530    2.3890    0.6290 H         1 HET    0.0655
     41 H101        3.9970   -2.0270    0.5230 H         1 HET    0.0593
     42 H102        2.8040   -2.5450   -0.7280 H         1 HET    0.0593
     43 H11         2.5950    4.5440    0.7710 H         1 HET    0.0628
     44 H13         3.8490    2.3950    0.6180 H         1 HET    0.0652
     45 H16        -0.9260   -1.4470    2.1490 H         1 HET    0.0655
     46 H17         0.4000   -3.2940   -1.5240 H         1 HET    0.0628
     47 H19         2.1640    7.8290   -0.4260 H         1 HET    0.0679
     48 H4         -2.4610    4.4810    2.8230 H         1 HET    0.2113
     49 H21        -0.9670   -5.2940   -1.0160 H         1 HET    0.0651
     50 H23         0.3790   10.8400    2.1180 H         1 HET    0.0678
     51 H52         1.7660   -3.6990    1.0580 H         1 HET    0.2102
     52 H7         -1.2680   10.0630    3.5700 H         1 HET    0.2183
     53 H92         2.0730   11.2200    0.5550 H         1 HET    0.2183
     54 H10        -2.3750   -6.3040    0.5000 H         1 HET    0.2184
     55 H251       -3.6570   -4.0170    4.2350 H         1 HET    0.0536
     56 H252       -2.6780   -5.3120    3.4440 H         1 HET    0.0536
     57 H253       -4.0230   -4.5140    2.5390 H         1 HET    0.0536
@<TRIPOS>BOND
     1    1   11 1
     2    1   16 1
     3    2   12 1
     4    2   17 1
     5    3   13 1
     6    3   25 1
     7    4   15 1
     8    4   48 1
     9    5   20 1
    10    5   51 1
    11    6   22 2
    12    7   28 1
    13    7   52 1
    14    8   30 1
    15    8   35 1
    16    9   32 1
    17    9   53 1
    18   10   34 1
    19   10   54 1
    20   11   12 1
    21   11   18 1
    22   11   36 1
    23   12   20 1
    24   12   37 1
    25   13   14 1
    26   13   15 1
    27   13   38 1
    28   14   19 ar
    29   14   21 ar
    30   15   22 1
    31   15   39 1
    32   16   17 ar
    33   16   19 ar
    34   17   23 ar
    35   18   26 ar
    36   18   27 ar
    37   19   40 1
    38   20   41 1
    39   20   42 1
    40   21   23 ar
    41   21   43 1
    42   22   24 1
    43   23   44 1
    44   24   25 ar
    45   24   28 ar
    46   25   29 ar
    47   26   30 ar
    48   26   45 1
    49   27   31 ar
    50   27   46 1
    51   28   33 ar
    52   29   32 ar
    53   29   47 1
    54   30   34 ar
    55   31   34 ar
    56   31   49 1
    57   32   33 ar
    58   33   50 1
    59   35   55 1
    60   35   56 1
    61   35   57 1
@<TRIPOS>SUBSTRUCTURE
     1 HET     1 RESIDUE           4 A     HET     0 ROOT
