REMARK  3 active torsions:
REMARK  status: ('A' for Active; 'I' for Inactive)
REMARK    1  A    between atoms: O3_3  and  C11_17 
REMARK    2  A    between atoms: O4_4  and  C12_18 
REMARK    3  A    between atoms: O5_5  and  C17_23 
ROOT
ATOM      1  O1  HET A   1       0.271  -0.094  -0.093  0.00  0.00    -0.316 OA
ATOM      2  O2  HET A   1       2.631  -0.094  -0.093  0.00  0.00    -0.316 OA
ATOM      3  N   HET A   1      -1.232   4.742  -1.790  0.00  0.00    -0.309 N 
ATOM      4  C1  HET A   1       0.057   4.709  -1.243  0.00  0.00     0.048 C 
ATOM      5  C2  HET A   1       0.718   5.943  -1.030  0.00  0.00     0.007 C 
ATOM      6  C3  HET A   1      -0.044   7.153  -0.982  0.00  0.00     0.025 A 
ATOM      7  C4  HET A   1       0.719   3.473  -0.910  0.00  0.00     0.007 C 
ATOM      8  C5  HET A   1      -1.406   7.103  -1.353  0.00  0.00     0.032 A 
ATOM      9  C6  HET A   1       2.127   3.492  -0.795  0.00  0.00    -0.014 C 
ATOM     10  C7  HET A   1      -1.933   5.870  -1.844  0.00  0.00     0.086 C 
ATOM     11  C8  HET A   1       2.139   5.918  -0.917  0.00  0.00     0.011 C 
ATOM     12  C9  HET A   1       2.820   4.738  -0.867  0.00  0.00     0.010 C 
ATOM     13  C10 HET A   1      -0.001   2.276  -0.622  0.00  0.00     0.047 C 
ATOM     14  C11 HET A   1       0.452   8.423  -0.542  0.00  0.00     0.086 A 
ATOM     15  C12 HET A   1      -2.229   8.242  -1.317  0.00  0.00     0.114 A 
ATOM     16  C13 HET A   1       2.878   2.302  -0.553  0.00  0.00     0.045 C 
ATOM     17  C14 HET A   1       0.732   1.155  -0.376  0.00  0.00     0.109 A 
ATOM     18  C15 HET A   1       2.167   1.159  -0.363  0.00  0.00     0.109 A 
ATOM     19  C16 HET A   1      -1.794   3.570  -2.479  0.00  0.00     0.136 C 
ATOM     20  C17 HET A   1      -1.682   9.484  -0.985  0.00  0.00     0.108 A 
ATOM     21  C18 HET A   1      -0.333   9.558  -0.567  0.00  0.00     0.070 A 
ATOM     22  C19 HET A   1       1.453  -0.916   0.093  0.00  0.00     0.337 A 
ENDROOT
BRANCH  14  23
ATOM     23  O3  HET A   1       1.720   8.387  -0.093  0.00  0.00    -0.349 OA
ATOM     24  C20 HET A   1       2.287   9.596   0.412  0.00  0.00     0.203 C 
ENDBRANCH  14  23
BRANCH  20  25
ATOM     25  O5  HET A   1      -2.282  10.681  -0.990  0.00  0.00    -0.346 OA
ATOM     26  C22 HET A   1      -3.566  10.801  -1.603  0.00  0.00     0.203 C 
ENDBRANCH  20  25
BRANCH  15  27
ATOM     27  O4  HET A   1      -3.535   8.114  -1.712  0.00  0.00    -0.346 OA
ATOM     28  C21 HET A   1      -4.394   7.721  -0.638  0.00  0.00     0.203 C 
ENDBRANCH  15  27
TORSDOF 3
