@<TRIPOS>MOLECULE
isatin.pdb
15 16 1 0 0
SMALL
AMBER ff14SB


@<TRIPOS>ATOM
      1 O1         -0.1780    0.0520   -0.1460 O.2       1 AES   -0.2829
      2 O2          2.8040    0.0520   -0.1460 O.2       1 AES   -0.2629
      3 N           2.5360    2.3720   -0.1460 N.am      1 AES   -0.2057
      4 C1          0.1770    2.4390   -0.1600 C.ar      1 AES    0.0536
      5 C2          1.4280    3.1660   -0.1550 C.ar      1 AES    0.0787
      6 C3          0.5250    1.0230   -0.1510 C.2       1 AES    0.2542
      7 C4          2.1240    1.0450   -0.1470 C.2       1 AES    0.3182
      8 C5         -1.0330    3.0990   -0.1770 C.ar      1 AES   -0.0487
      9 C6          1.3920    4.5800   -0.1600 C.ar      1 AES   -0.0355
     10 C7         -1.0490    4.4940   -0.1840 C.ar      1 AES   -0.0614
     11 C8          0.1610    5.2090   -0.1750 C.ar      1 AES   -0.0601
     12 H8          0.1210    6.2970   -0.1800 H         1 AES    0.0624
     13 H5         -1.9630    2.5340   -0.1840 H         1 AES    0.0631
     14 H6          2.3220    5.1300   -0.1530 H         1 AES    0.0646
     15 H7         -1.9850    5.0280   -0.1970 H         1 AES    0.0623
@<TRIPOS>BOND
     1    1    6 2
     2    2    7 2
     3    3    5 1
     4    3    7 am
     5    4    5 ar
     6    4    6 1
     7    4    8 ar
     8    5    9 ar
     9    6    7 1
    10    8   10 ar
    11    8   13 1
    12    9   11 ar
    13    9   14 1
    14   10   11 ar
    15   10   15 1
    16   11   12 1
@<TRIPOS>SUBSTRUCTURE
     1 AES     1 RESIDUE           4 A     AES     0 ROOT
