REMARK  1 active torsions:
REMARK  status: ('A' for Active; 'I' for Inactive)
REMARK    1  A    between atoms: C1_8  and  C2_9 
ROOT
ATOM      1  O2  HET A   1       4.927  -0.054  -4.385  0.00  0.00    -0.300 OA
ATOM      2  O3  HET A   1       5.838   2.125  -4.385  0.00  0.00    -0.300 OA
ATOM      3  N   HET A   1      -0.560   2.754  -5.305  0.00  0.00    -0.019 N 
ATOM      4  C1  HET A   1       0.311   1.514  -5.068  0.00  0.00     0.238 C 
ATOM      5  C3  HET A   1       1.773   1.792  -4.902  0.00  0.00     0.007 A 
ATOM      6  C4  HET A   1       0.023   3.995  -4.669  0.00  0.00     0.218 C 
ATOM      7  C5  HET A   1       2.318   3.070  -4.917  0.00  0.00    -0.020 A 
ATOM      8  C6  HET A   1       1.445   4.266  -5.136  0.00  0.00     0.059 C 
ATOM      9  C9  HET A   1       2.594   0.648  -4.736  0.00  0.00     0.024 A 
ATOM     10  C10 HET A   1      -0.776   2.960  -6.775  0.00  0.00     0.246 C 
ATOM     11  C11 HET A   1       3.704   3.293  -4.749  0.00  0.00     0.022 A 
ATOM     12  C13 HET A   1       3.934   0.873  -4.564  0.00  0.00     0.119 A 
ATOM     13  C15 HET A   1       4.483   2.182  -4.570  0.00  0.00     0.119 A 
ATOM     14  C19 HET A   1       6.146   0.715  -4.244  0.00  0.00     0.304 A 
ATOM     15  H   HET A   1      -1.519   2.572  -4.834  0.00  0.00     0.284 HD
ENDROOT
BRANCH   4  16
ATOM     16  C2  HET A   1      -0.269   0.707  -3.838  0.00  0.00     0.180 C 
ATOM     17  O1  HET A   1      -1.336  -0.054  -4.385  0.00  0.00    -0.294 OA
ATOM     18  C12 HET A   1      -2.602   0.473  -3.914  0.00  0.00     0.298 C 
ATOM     19  O6  HET A   1      -3.570  -0.054  -4.385  0.00  0.00    -0.259 OA
ATOM     20  C8  HET A   1      -2.297   1.560  -3.050  0.00  0.00     0.086 A 
ATOM     21  C7  HET A   1      -0.868   1.599  -2.800  0.00  0.00     0.015 A 
ATOM     22  C16 HET A   1      -3.038   2.430  -2.247  0.00  0.00     0.124 A 
ATOM     23  C14 HET A   1      -0.275   2.329  -1.794  0.00  0.00     0.001 A 
ATOM     24  C18 HET A   1      -1.051   3.201  -1.006  0.00  0.00     0.026 A 
ATOM     25  C17 HET A   1      -2.417   3.222  -1.286  0.00  0.00     0.119 A 
ATOM     26  O5  HET A   1      -3.346   4.039  -0.667  0.00  0.00    -0.300 OA
ATOM     27  C20 HET A   1      -4.601   3.712  -1.296  0.00  0.00     0.304 A 
ATOM     28  O4  HET A   1      -4.388   2.696  -2.301  0.00  0.00    -0.299 OA
ENDBRANCH   4  16
TORSDOF 1
