REMARK  9 active torsions:
REMARK  status: ('A' for Active; 'I' for Inactive)
REMARK    1  A    between atoms: O4_4  and  C5_15 
REMARK    2  A    between atoms: O5_5  and  C10_20 
REMARK    3  A    between atoms: O7_7  and  C18_28 
REMARK    4  A    between atoms: O8_8  and  C20_30 
REMARK    5  A    between atoms: O9_9  and  C22_32 
REMARK    6  A    between atoms: O10_10  and  C24_34 
REMARK    7  A    between atoms: C1_11  and  C8_18 
REMARK    8  A    between atoms: C2_12  and  C10_20 
REMARK    9  A    between atoms: C3_13  and  C4_14 
ROOT
ATOM      1  O1  HET A   1      -0.086   0.062   0.439  0.00  0.00    -0.333 OA
ATOM      2  O2  HET A   1       2.781   0.062   0.439  0.00  0.00    -0.335 OA
ATOM      3  C1  HET A   1       0.684  -1.064  -0.012  0.00  0.00     0.187 C 
ATOM      4  C2  HET A   1       2.018  -1.108   0.757  0.00  0.00     0.185 C 
ATOM      5  C4  HET A   1       0.655   3.596   0.703  0.00  0.00    -0.013 A 
ATOM      6  C6  HET A   1       0.649   1.210   0.513  0.00  0.00     0.106 A 
ATOM      7  C7  HET A   1       2.052   1.212   0.531  0.00  0.00     0.106 A 
ATOM      8  C9  HET A   1      -0.062   2.401   0.607  0.00  0.00     0.042 A 
ATOM      9  C11 HET A   1       2.050   3.602   0.701  0.00  0.00     0.009 A 
ATOM     10  C13 HET A   1       2.761   2.406   0.615  0.00  0.00     0.036 A 
ENDROOT
BRANCH   5  11
ATOM     11  C3  HET A   1      -0.130   4.868   0.834  0.00  0.00     0.192 C 
ATOM     12  O3  HET A   1       0.777   5.913   0.439  0.00  0.00    -0.334 OA
ATOM     13  C15 HET A   1       0.605   7.152   0.924  0.00  0.00     0.092 A 
ATOM     14  C14 HET A   1      -0.330   7.484   1.923  0.00  0.00     0.081 A 
ATOM     15  C19 HET A   1       1.453   8.102   0.348  0.00  0.00     0.067 A 
ATOM     16  C12 HET A   1      -1.185   6.451   2.473  0.00  0.00     0.199 C 
ATOM     17  C18 HET A   1      -0.387   8.827   2.338  0.00  0.00     0.087 A 
ATOM     18  O6  HET A   1      -2.241   6.614   3.033  0.00  0.00    -0.291 OA
ATOM     19  C5  HET A   1      -0.642   5.035   2.278  0.00  0.00     0.220 C 
ATOM     20  C23 HET A   1       0.437   9.814   1.790  0.00  0.00     0.067 A 
ATOM     21  C22 HET A   1       1.345   9.419   0.800  0.00  0.00     0.076 A 
BRANCH  19  22
ATOM     22  O4  HET A   1      -1.644   4.063   2.448  0.00  0.00    -0.382 OA
ATOM     23  H4  HET A   1      -2.461   4.481   2.823  0.00  0.00     0.211 HD
ENDBRANCH  19  22
BRANCH  17  24
ATOM     24  O7  HET A   1      -1.262   9.101   3.319  0.00  0.00    -0.360 OA
ATOM     25  H7  HET A   1      -1.268  10.063   3.570  0.00  0.00     0.218 HD
ENDBRANCH  17  24
BRANCH  21  26
ATOM     26  O9  HET A   1       2.184  10.296   0.213  0.00  0.00    -0.361 OA
ATOM     27  H92 HET A   1       2.073  11.220   0.555  0.00  0.00     0.218 HD
ENDBRANCH  21  26
ENDBRANCH   5  11
BRANCH   3  28
ATOM     28  C8  HET A   1      -0.165  -2.261   0.288  0.00  0.00    -0.013 A 
ATOM     29  C16 HET A   1      -0.923  -2.295   1.458  0.00  0.00     0.042 A 
ATOM     30  C20 HET A   1      -1.703  -3.419   1.749  0.00  0.00     0.105 A 
ATOM     31  C24 HET A   1      -1.710  -4.497   0.843  0.00  0.00     0.102 A 
ATOM     32  C21 HET A   1      -0.952  -4.457  -0.323  0.00  0.00     0.036 A 
ATOM     33  C17 HET A   1      -0.179  -3.332  -0.604  0.00  0.00     0.009 A 
BRANCH  30  34
ATOM     34  O8  HET A   1      -2.359  -3.321   2.930  0.00  0.00    -0.347 OA
ATOM     35  C25 HET A   1      -3.237  -4.383   3.289  0.00  0.00     0.203 C 
ENDBRANCH  30  34
BRANCH  31  36
ATOM     36  O10 HET A   1      -2.499  -5.566   1.146  0.00  0.00    -0.358 OA
ATOM     37  H10 HET A   1      -2.375  -6.304   0.500  0.00  0.00     0.218 HD
ENDBRANCH  31  36
ENDBRANCH   3  28
BRANCH   4  38
ATOM     38  C10 HET A   1       2.930  -2.268   0.332  0.00  0.00     0.191 C 
BRANCH  38  39
ATOM     39  O5  HET A   1       2.694  -3.387   1.152  0.00  0.00    -0.394 OA
ATOM     40  H52 HET A   1       1.766  -3.699   1.058  0.00  0.00     0.210 HD
ENDBRANCH  38  39
ENDBRANCH   4  38
TORSDOF 9
