@<TRIPOS>MOLECULE
sanguinarine.pdb
39 44 1 0 0
SMALL
AMBER ff14SB


@<TRIPOS>ATOM
      1 O1         -0.1670    0.1950    0.8200 O.3       1 HET   -0.3153
      2 O2          2.1960    0.1950    0.8200 O.3       1 HET   -0.3160
      3 O3         -5.6670    7.8780    0.8200 O.3       1 HET   -0.3160
      4 O4         -4.6740    9.7260    1.9010 O.3       1 HET   -0.3160
      5 N          -2.5160    3.6840    1.7930 N.ar      1 HET   -0.3086
      6 C1         -1.8550    4.9270    1.9140 C.ar      1 HET    0.0482
      7 C2         -0.4580    4.9180    2.1000 C.ar      1 HET    0.0046
      8 C3          0.3150    3.7290    1.8230 C.ar      1 HET   -0.0051
      9 C4         -2.5640    6.1750    1.8590 C.ar      1 HET    0.0066
     10 C5         -0.4240    2.5520    1.4970 C.ar      1 HET    0.0296
     11 C6         -1.9200    7.3200    2.3870 C.ar      1 HET   -0.0137
     12 C7         -1.8400    2.5610    1.5720 C.ar      1 HET    0.0061
     13 C8          0.3120    1.4180    1.1710 C.ar      1 HET    0.1175
     14 C9          0.1690    6.1020    2.5720 C.ar      1 HET   -0.0518
     15 C10        -0.5530    7.2440    2.7780 C.ar      1 HET   -0.0535
     16 C11        -3.8430    6.3070    1.2350 C.ar      1 HET   -0.0192
     17 C12         1.7180    3.7050    1.8240 C.ar      1 HET   -0.0509
     18 C13         1.7180    1.4260    1.1740 C.ar      1 HET    0.1091
     19 C14        -2.5880    8.5810    2.4820 C.ar      1 HET   -0.0210
     20 C15        -4.4530    7.5210    1.3180 C.ar      1 HET    0.1090
     21 C16        -3.8410    8.6500    1.9620 C.ar      1 HET    0.1090
     22 C17        -3.9530    3.5550    2.0830 C.3       1 HET    0.0047
     23 C18         2.4450    2.5570    1.4990 C.ar      1 HET   -0.0283
     24 C19         1.0220   -0.6180    0.5790 C.3       1 HET    0.1585
     25 C20        -5.8420    9.2760    1.1700 C.3       1 HET    0.1585
     26 H7         -2.3870    1.6030    1.4650 H         1 HET    0.0799
     27 H9          1.2390    6.0840    2.7940 H         1 HET    0.0630
     28 H10        -0.0800    8.1340    3.2070 H         1 HET    0.0630
     29 H11        -4.2850    5.5060    0.6520 H         1 HET    0.0659
     30 H12         2.2750    4.6130    2.0740 H         1 HET    0.0631
     31 H14        -2.0930    9.4390    2.9360 H         1 HET    0.0658
     32 H171       -4.3170    4.3860    2.7260 H         1 HET    0.0436
     33 H172       -4.5520    3.5450    1.1490 H         1 HET    0.0436
     34 H173       -4.1700    2.6190    2.6370 H         1 HET    0.0436
     35 H18         3.5390    2.5510    1.4980 H         1 HET    0.0652
     36 H191        1.0160   -0.9040   -0.4840 H         1 HET    0.0893
     37 H192        1.0170   -1.4370    1.3150 H         1 HET    0.0893
     38 H201       -6.7090    9.3480    1.8440 H         1 HET    0.0893
     39 H202       -5.8960    9.8510    0.2320 H         1 HET    0.0893
@<TRIPOS>BOND
     1    1   13 1
     2    1   24 1
     3    2   18 1
     4    2   24 1
     5    3   20 1
     6    3   25 1
     7    4   21 1
     8    4   25 1
     9    5    6 ar
    10    5   12 ar
    11    5   22 1
    12    6    7 ar
    13    6    9 ar
    14    7    8 ar
    15    7   14 ar
    16    8   10 ar
    17    8   17 ar
    18    9   11 ar
    19    9   16 ar
    20   10   12 ar
    21   10   13 ar
    22   11   15 ar
    23   11   19 ar
    24   12   26 1
    25   13   18 ar
    26   14   15 ar
    27   14   27 1
    28   15   28 1
    29   16   20 ar
    30   16   29 1
    31   17   23 ar
    32   17   30 1
    33   18   23 ar
    34   19   21 ar
    35   19   31 1
    36   20   21 ar
    37   22   32 1
    38   22   33 1
    39   22   34 1
    40   23   35 1
    41   24   36 1
    42   24   37 1
    43   25   38 1
    44   25   39 1
@<TRIPOS>SUBSTRUCTURE
     1 HET     1 RESIDUE           4 A     HET     0 ROOT
