REMARK  2 active torsions:
REMARK  status: ('A' for Active; 'I' for Inactive)
REMARK    1  A    between atoms: O3_3  and  C14_19 
REMARK    2  A    between atoms: O4_4  and  C16_21 
ROOT
ATOM      1  O1  HET A   1       0.000   0.000   0.000  0.00  0.00    -0.316 OA
ATOM      2  O2  HET A   1       2.230   0.000   0.000  0.00  0.00    -0.316 OA
ATOM      3  N   HET A   1       1.766   6.121   0.278  0.00  0.00    -0.306 N 
ATOM      4  C1  HET A   1       0.368   5.968   0.727  0.00  0.00     0.115 C 
ATOM      5  C2  HET A   1      -0.341   4.963  -0.163  0.00  0.00     0.056 C 
ATOM      6  C3  HET A   1       2.512   5.004  -0.028  0.00  0.00     0.041 A 
ATOM      7  C4  HET A   1       0.404   3.656  -0.070  0.00  0.00    -0.035 A 
ATOM      8  C5  HET A   1       1.833   3.667  -0.043  0.00  0.00     0.002 A 
ATOM      9  C6  HET A   1       2.309   7.371   0.208  0.00  0.00     0.086 A 
ATOM     10  C7  HET A   1       3.872   5.148  -0.354  0.00  0.00     0.033 A 
ATOM     11  C8  HET A   1       3.659   7.558  -0.135  0.00  0.00     0.029 A 
ATOM     12  C9  HET A   1       4.448   6.421  -0.400  0.00  0.00    -0.012 A 
ATOM     13  C10 HET A   1      -0.301   2.434  -0.040  0.00  0.00     0.041 A 
ATOM     14  C11 HET A   1       2.535   2.437  -0.029  0.00  0.00     0.046 A 
ATOM     15  C12 HET A   1       0.441   1.260  -0.016  0.00  0.00     0.109 A 
ATOM     16  C13 HET A   1       1.790   1.261  -0.017  0.00  0.00     0.109 A 
ATOM     17  C14 HET A   1       4.220   8.854  -0.216  0.00  0.00     0.114 A 
ATOM     18  C15 HET A   1       5.799   6.573  -0.721  0.00  0.00     0.012 A 
ATOM     19  C16 HET A   1       5.601   8.995  -0.522  0.00  0.00     0.105 A 
ATOM     20  C17 HET A   1       1.114  -0.834   0.008  0.00  0.00     0.337 A 
ATOM     21  C18 HET A   1       6.372   7.841  -0.770  0.00  0.00     0.037 A 
ENDROOT
BRANCH  17  22
ATOM     22  O3  HET A   1       3.387   9.913   0.000  0.00  0.00    -0.346 OA
ATOM     23  C19 HET A   1       3.571  11.233  -0.353  0.00  0.00     0.203 C 
ENDBRANCH  17  22
BRANCH  19  24
ATOM     24  O4  HET A   1       6.166  10.231  -0.550  0.00  0.00    -0.347 OA
ATOM     25  C20 HET A   1       7.510  10.517  -0.683  0.00  0.00     0.203 C 
ENDBRANCH  19  24
TORSDOF 2
