@<TRIPOS>MOLECULE
anatoxinaPM7.pdb
28 29 1 0 0
SMALL
AMBER ff14SB


@<TRIPOS>ATOM
      1 O           1.0530   -0.8800   -0.2120 O.2       1 T55   -0.2947
      2 N           4.4800   -0.8800   -0.2120 N.4       1 T55    0.2469
      3 C1          5.7170    0.0340   -0.2120 C.3       1 T55   -0.0242
      4 C2          3.5640   -0.2960   -1.3120 C.3       1 T55    0.0043
      5 C3          5.9190    0.3550   -1.7000 C.3       1 T55   -0.0053
      6 C4          4.5300    0.2850   -2.3580 C.3       1 T55   -0.0011
      7 C5          5.4540    1.2630    0.6630 C.3       1 T55   -0.0074
      8 C6          2.6760    0.7060   -0.6500 C.2       1 T55    0.0374
      9 C7          4.4860    2.3000    0.0800 C.3       1 T55   -0.0289
     10 C8          3.0770    1.8310   -0.0430 C.2       1 T55   -0.0720
     11 C9          1.2470    0.2550   -0.5770 C.2       1 T55    0.1605
     12 C10         0.1640    1.1960   -0.9530 C.3       1 T55   -0.0010
     13 H1          6.5800   -0.5470    0.2040 H         1 T55    0.0851
     14 H2          2.9650   -1.1460   -1.7450 H         1 T55    0.0907
     15 H31         6.6220   -0.3570   -2.1760 H         1 T55    0.0326
     16 H32         6.3910    1.3470   -1.8430 H         1 T55    0.0326
     17 H41         4.1890    1.2810   -2.7030 H         1 T55    0.0330
     18 H42         4.5530   -0.3350   -3.2770 H         1 T55    0.0330
     19 H1          4.7430   -1.8570   -0.4390 H         1 T55    0.1990
     20 H51         6.4350    1.7660    0.8550 H         1 T55    0.0327
     21 H52         5.1090    0.9590    1.6750 H         1 T55    0.0327
     22 H71         4.8460    2.6570   -0.9140 H         1 T55    0.0312
     23 H72         4.5300    3.2150    0.7210 H         1 T55    0.0312
     24 H8          2.3360    2.5010    0.4200 H         1 T55    0.0582
     25 H101        0.4980    2.2220   -1.1450 H         1 T55    0.0314
     26 H102       -0.6220    1.2320   -0.1740 H         1 T55    0.0314
     27 H103       -0.3550    0.8450   -1.8670 H         1 T55    0.0314
     28 H2          3.9860   -0.8790    0.7030 H         1 T55    0.1990
@<TRIPOS>BOND
     1    1   11 2
     2    2    3 1
     3    2    4 1
     4    2   19 1
     5    2   28 1
     6    3    5 1
     7    3    7 1
     8    3   13 1
     9    4    6 1
    10    4    8 1
    11    4   14 1
    12    5    6 1
    13    5   15 1
    14    5   16 1
    15    6   17 1
    16    6   18 1
    17    7    9 1
    18    7   20 1
    19    7   21 1
    20    8   10 2
    21    8   11 2
    22    9   10 1
    23    9   22 1
    24    9   23 1
    25   10   24 1
    26   11   12 1
    27   12   25 1
    28   12   26 1
    29   12   27 1
@<TRIPOS>SUBSTRUCTURE
     1 T55     1 RESIDUE           4 A     T55     0 ROOT
