REMARK  1 active torsions:
REMARK  status: ('A' for Active; 'I' for Inactive)
REMARK    1  A    between atoms: C6_8  and  C9_11 
ROOT
ATOM      1  N   T55 A   1       4.480  -0.880  -0.212  0.00  0.00     0.247 N 
ATOM      2  C1  T55 A   1       5.717   0.034  -0.212  0.00  0.00     0.061 C 
ATOM      3  C2  T55 A   1       3.564  -0.296  -1.312  0.00  0.00     0.095 C 
ATOM      4  C3  T55 A   1       5.919   0.355  -1.700  0.00  0.00     0.060 C 
ATOM      5  C4  T55 A   1       4.530   0.285  -2.358  0.00  0.00     0.065 C 
ATOM      6  C5  T55 A   1       5.454   1.263   0.663  0.00  0.00     0.058 C 
ATOM      7  C6  T55 A   1       2.676   0.706  -0.650  0.00  0.00     0.037 C 
ATOM      8  C7  T55 A   1       4.486   2.300   0.080  0.00  0.00     0.034 C 
ATOM      9  C8  T55 A   1       3.077   1.831  -0.043  0.00  0.00    -0.014 C 
ATOM     10  H1  T55 A   1       4.743  -1.857  -0.439  0.00  0.00     0.199 HD
ATOM     11  H2  T55 A   1       3.986  -0.879   0.703  0.00  0.00     0.199 HD
ENDROOT
BRANCH   7  12
ATOM     12  C9  T55 A   1       1.247   0.255  -0.577  0.00  0.00     0.161 C 
ATOM     13  O   T55 A   1       1.053  -0.880  -0.212  0.00  0.00    -0.295 OA
ATOM     14  C10 T55 A   1       0.164   1.196  -0.953  0.00  0.00     0.093 C 
ENDBRANCH   7  12
TORSDOF 1
