@<TRIPOS>MOLECULE
huperzinaaPM7.pdb
37 39 1 0 0
SMALL
AMBER ff14SB


@<TRIPOS>ATOM
      1 O          -0.2790   -0.0970   -0.3430 O.2       1 HET   -0.2723
      2 N1          5.8990   -0.0970   -0.3430 N.4       1 HET    0.2427
      3 N2          1.4150    1.3770   -0.3430 N.am      1 HET   -0.2850
      4 C1          5.0900    1.0590   -1.0250 C.3       1 HET    0.0371
      5 C2          4.5030    3.4250   -0.9030 C.3       1 HET    0.0093
      6 C3          5.4350    2.3730   -0.3660 C.2       1 HET   -0.0125
      7 C4          5.5170    1.1330   -2.5030 C.3       1 HET    0.0214
      8 C5          3.6480    0.7100   -0.8690 C.2       1 HET    0.0238
      9 C6          3.1060    3.1300   -0.3150 C.3       1 HET   -0.0037
     10 C7          2.7300    1.6910   -0.5120 C.2       1 HET    0.0201
     11 C8          4.9150    2.3650   -3.1330 C.2       1 HET   -0.0702
     12 C9          4.4640    3.3920   -2.4030 C.2       1 HET   -0.0775
     13 C10         6.4070    2.5950    0.5240 C.2       1 HET   -0.0817
     14 C11         3.1660   -0.5930   -1.2040 C.2       1 HET   -0.0460
     15 C12         4.8590    2.3470   -4.6170 C.3       1 HET   -0.0436
     16 C13         1.8610   -0.9190   -1.0490 C.2       1 HET    0.0015
     17 C14         0.8950    0.0470   -0.5650 C.2       1 HET    0.2396
     18 C15         6.7190    3.9130    1.1310 C.3       1 HET   -0.0465
     19 H21         4.8260    4.4510   -0.5790 H         1 HET    0.0399
     20 H41         5.1840    0.2320   -3.0610 H         1 HET    0.0381
     21 H42         6.6210    1.1900   -2.6130 H         1 HET    0.0381
     22 H61         2.3580    3.8100   -0.7850 H         1 HET    0.0339
     23 H62         3.0980    3.3820    0.7710 H         1 HET    0.0339
     24 H9          4.0330    4.2790   -2.8670 H         1 HET    0.0582
     25 H11         5.7530   -0.9840   -0.8490 H         1 HET    0.1974
     26 H12         5.5630   -0.2150    0.6280 H         1 HET    0.1974
     27 H10         7.0700    1.8060    0.8830 H         1 HET    0.0575
     28 H11         3.8590   -1.3300   -1.6140 H         1 HET    0.0631
     29 H22         0.7370    2.0940   -0.0680 H         1 HET    0.1557
     30 H121        4.0210    1.7270   -4.9770 H         1 HET    0.0276
     31 H122        5.7780    1.9470   -5.0720 H         1 HET    0.0276
     32 H123        4.7100    3.3510   -5.0480 H         1 HET    0.0276
     33 H13         1.4590   -1.9060   -1.2920 H         1 HET    0.0679
     34 H151        6.8040    3.8440    2.2290 H         1 HET    0.0274
     35 H152        5.9760    4.6960    0.9240 H         1 HET    0.0274
     36 H153        7.6890    4.2970    0.7650 H         1 HET    0.0274
     37 H13         6.9070    0.1160   -0.3310 H         1 HET    0.1974
@<TRIPOS>BOND
     1    1   17 2
     2    2    4 1
     3    2   25 1
     4    2   26 1
     5    2   37 1
     6    3   10 1
     7    3   17 am
     8    3   29 1
     9    4    6 1
    10    4    7 1
    11    4    8 1
    12    5    6 1
    13    5    9 1
    14    5   12 1
    15    5   19 1
    16    6   13 2
    17    7   11 1
    18    7   20 1
    19    7   21 1
    20    8   10 2
    21    8   14 2
    22    9   10 1
    23    9   22 1
    24    9   23 1
    25   11   12 2
    26   11   15 1
    27   12   24 1
    28   13   18 1
    29   13   27 1
    30   14   16 2
    31   14   28 1
    32   15   30 1
    33   15   31 1
    34   15   32 1
    35   16   17 1
    36   16   33 1
    37   18   34 1
    38   18   35 1
    39   18   36 1
@<TRIPOS>SUBSTRUCTURE
     1 HET     1 RESIDUE           4 A     HET     0 ROOT
