aldicarb.pdbqt
 OpenBabel11032519433D

 13 12  0  0  0  0  0  0  0  0999 V2000
    3.0250    0.7510    0.2790 N   0  0  0  0  0  2  0  0  0  0  0  0
    2.1880    0.1180    1.0290 C   0  0  0  0  0  2  0  0  0  0  0  0
    4.1700   -0.0180    0.0520 O   0  0  0  0  0  0  0  0  0  0  0  0
    5.2520    0.8220   -0.2590 C   0  0  0  0  0  0  0  0  0  0  0  0
    5.3650    1.9780    0.0520 O   0  0  0  0  0  0  0  0  0  0  0  0
    6.1840    0.0410   -0.8990 N   0  0  0  0  0  0  0  0  0  0  0  0
    7.4560    0.6380   -1.3080 C   0  0  0  0  0  1  0  0  0  0  0  0
    5.9980   -0.9080   -1.1660 H   0  0  0  0  0  0  0  0  0  0  0  0
    0.8420    0.7330    1.3170 C   0  0  0  0  0  0  0  0  0  0  0  0
    0.8550    2.2530    1.2460 C   0  0  0  0  0  1  0  0  0  0  0  0
    0.3490    0.2700    2.6860 C   0  0  0  0  0  1  0  0  0  0  0  0
   -0.3100   -0.0180    0.0520 S   0  0  0  0  0  0  0  0  0  0  0  0
    0.1640    0.7830   -1.5110 C   0  0  0  0  0  1  0  0  0  0  0  0
  1  2  1  0  0  0  0
  2  9  1  0  0  0  0
  3  1  1  0  0  0  0
  4  3  1  0  0  0  0
  4  5  2  0  0  0  0
  6  4  1  0  0  0  0
  7  6  1  0  0  0  0
  8  6  1  0  0  0  0
  9 11  1  0  0  0  0
 10  9  1  0  0  0  0
 12  9  1  0  0  0  0
 13 12  1  0  0  0  0
M  END
>  <REMARK>
  4 active torsions:
  status: ('A' for Active; 'I' for Inactive)
    1  A    between atoms: S_12  and  C1_9 
    2  A    between atoms: O1_3  and  N1_1 
    3  A    between atoms: O1_3  and  C6_4 
       I    between atoms: N2_6  and  C6_4 
    4  A    between atoms: C1_9  and  C4_2 

>  <TORSDO>
F 4

$$$$
