./Alicina.pdbqt
 OpenBabel10282519553D

  9  8  0  0  0  0  0  0  0  0999 V2000
  -26.4170   22.2810   -8.9810 S   0  0  1  0  0  0  0  0  0  0  0  0
  -26.3730   20.9860   -9.6810 O   0  0  0  0  0  0  0  0  0  0  0  0
  -27.9750   22.4100   -7.6360 S   0  0  0  0  0  0  0  0  0  0  0  0
  -27.7680   23.7790   -6.4240 C   0  0  0  0  0  2  0  0  0  0  0  0
  -29.0650   24.5070   -6.4100 C   0  0  0  0  0  3  0  0  0  0  0  0
  -29.6530   24.9090   -5.2830 C   0  0  0  0  0  2  0  0  0  0  0  0
  -24.9190   22.2180   -7.9030 C   0  0  0  0  0  2  0  0  0  0  0  0
  -24.3940   23.5890   -7.6900 C   0  0  0  0  0  3  0  0  0  0  0  0
  -24.4550   24.5450   -8.6190 C   0  0  0  0  0  2  0  0  0  0  0  0
  1  2  2  1  0  0  0
  1  7  1  0  0  0  0
  1  3  1  0  0  0  0
  3  4  1  0  0  0  0
  4  5  1  0  0  0  0
  5  6  2  0  0  0  0
  7  8  1  0  0  0  0
  9  8  2  0  0  0  0
M  END
>  <MODEL>
1

>  <REMARK>
 VINA RESULT:    -4.263      0.000      0.000
 INTER + INTRA:          -5.624
 INTER:                  -5.509
 INTRA:                  -0.115
 UNBOUND:                -0.115
  5 active torsions:
  status: ('A' for Active; 'I' for Inactive)
    1  A    between atoms: S1_1  and  S2_2 
    2  A    between atoms: S1_1  and  C1_4 
    3  A    between atoms: S2_2  and  C2_5 
    4  A    between atoms: C1_4  and  C3_6 
    5  A    between atoms: C2_5  and  C4_7 

>  <TORSDO>
F 5

$$$$
./Alicina.pdbqt
 OpenBabel10282519553D

  9  8  0  0  0  0  0  0  0  0999 V2000
  -30.2960   23.8610  -11.7340 S   0  0  1  0  0  0  0  0  0  0  0  0
  -29.0150   23.2960  -11.2760 O   0  0  0  0  0  0  0  0  0  0  0  0
  -31.5670   22.4330  -12.5110 S   0  0  0  0  0  0  0  0  0  0  0  0
  -30.7280   21.2800  -13.6730 C   0  0  0  0  0  2  0  0  0  0  0  0
  -31.7770   20.8320  -14.6270 C   0  0  0  0  0  3  0  0  0  0  0  0
  -33.0280   21.2880  -14.5880 C   0  0  0  0  0  2  0  0  0  0  0  0
  -31.1160   24.3560  -10.1560 C   0  0  0  0  0  2  0  0  0  0  0  0
  -32.4700   24.8920  -10.4380 C   0  0  0  0  0  3  0  0  0  0  0  0
  -32.7070   25.8220  -11.3640 C   0  0  0  0  0  2  0  0  0  0  0  0
  1  2  2  1  0  0  0
  1  7  1  0  0  0  0
  3  1  1  0  0  0  0
  4  3  1  0  0  0  0
  5  6  2  0  0  0  0
  5  4  1  0  0  0  0
  8  7  1  0  0  0  0
  9  8  2  0  0  0  0
M  END
>  <MODEL>
2

>  <REMARK>
 VINA RESULT:    -4.256      6.740      7.771
 INTER + INTRA:          -5.616
 INTER:                  -5.557
 INTRA:                  -0.059
 UNBOUND:                -0.115
  5 active torsions:
  status: ('A' for Active; 'I' for Inactive)
    1  A    between atoms: S1_1  and  S2_2 
    2  A    between atoms: S1_1  and  C1_4 
    3  A    between atoms: S2_2  and  C2_5 
    4  A    between atoms: C1_4  and  C3_6 
    5  A    between atoms: C2_5  and  C4_7 

>  <TORSDO>
F 5

$$$$
./Alicina.pdbqt
 OpenBabel10282519553D

  9  8  0  0  0  0  0  0  0  0999 V2000
  -26.2110   23.4360   -6.9630 S   0  0  1  0  0  0  0  0  0  0  0  0
  -26.8720   24.7300   -7.2010 O   0  0  0  0  0  0  0  0  0  0  0  0
  -26.9390   21.9330   -8.1750 S   0  0  0  0  0  0  0  0  0  0  0  0
  -25.7050   21.3400   -9.4040 C   0  0  0  0  0  2  0  0  0  0  0  0
  -26.0460   22.0210  -10.6820 C   0  0  0  0  0  3  0  0  0  0  0  0
  -25.1300   22.3360  -11.5970 C   0  0  0  0  0  2  0  0  0  0  0  0
  -24.5040   23.7210   -7.6060 C   0  0  0  0  0  2  0  0  0  0  0  0
  -24.5360   24.7350   -8.6880 C   0  0  0  0  0  3  0  0  0  0  0  0
  -23.9130   25.9110   -8.6040 C   0  0  0  0  0  2  0  0  0  0  0  0
  1  2  2  6  0  0  0
  3  1  1  0  0  0  0
  4  3  1  0  0  0  0
  5  4  1  0  0  0  0
  6  5  2  0  0  0  0
  7  1  1  0  0  0  0
  8  9  2  0  0  0  0
  8  7  1  0  0  0  0
M  END
>  <MODEL>
3

>  <REMARK>
 VINA RESULT:    -4.186      3.230      4.137
 INTER + INTRA:          -5.524
 INTER:                  -5.254
 INTRA:                  -0.270
 UNBOUND:                -0.115
  5 active torsions:
  status: ('A' for Active; 'I' for Inactive)
    1  A    between atoms: S1_1  and  S2_2 
    2  A    between atoms: S1_1  and  C1_4 
    3  A    between atoms: S2_2  and  C2_5 
    4  A    between atoms: C1_4  and  C3_6 
    5  A    between atoms: C2_5  and  C4_7 

>  <TORSDO>
F 5

$$$$
./Alicina.pdbqt
 OpenBabel10282519553D

  9  8  0  0  0  0  0  0  0  0999 V2000
  -19.2810    0.9260   12.9240 S   0  0  1  0  0  0  0  0  0  0  0  0
  -18.9160    2.3030   13.2960 O   0  0  0  0  0  0  0  0  0  0  0  0
  -21.1010    0.8150   11.9580 S   0  0  0  0  0  0  0  0  0  0  0  0
  -22.4040    1.8380   12.7590 C   0  0  0  0  0  2  0  0  0  0  0  0
  -22.4080    3.1330   12.0290 C   0  0  0  0  0  3  0  0  0  0  0  0
  -21.9800    3.2540   10.7730 C   0  0  0  0  0  2  0  0  0  0  0  0
  -18.0630    0.5200   11.5980 C   0  0  0  0  0  2  0  0  0  0  0  0
  -18.7720    0.2920   10.3150 C   0  0  0  0  0  3  0  0  0  0  0  0
  -18.1400    0.1100    9.1550 C   0  0  0  0  0  2  0  0  0  0  0  0
  1  2  2  6  0  0  0
  3  4  1  0  0  0  0
  3  1  1  0  0  0  0
  5  4  1  0  0  0  0
  6  5  2  0  0  0  0
  7  1  1  0  0  0  0
  8  7  1  0  0  0  0
  9  8  2  0  0  0  0
M  END
>  <MODEL>
4

>  <REMARK>
 VINA RESULT:    -4.118     29.245     29.947
 INTER + INTRA:          -5.436
 INTER:                  -5.251
 INTRA:                  -0.186
 UNBOUND:                -0.115
  5 active torsions:
  status: ('A' for Active; 'I' for Inactive)
    1  A    between atoms: S1_1  and  S2_2 
    2  A    between atoms: S1_1  and  C1_4 
    3  A    between atoms: S2_2  and  C2_5 
    4  A    between atoms: C1_4  and  C3_6 
    5  A    between atoms: C2_5  and  C4_7 

>  <TORSDO>
F 5

$$$$
./Alicina.pdbqt
 OpenBabel10282519553D

  9  8  0  0  0  0  0  0  0  0999 V2000
  -25.8540   21.9990  -10.4290 S   0  0  1  0  0  0  0  0  0  0  0  0
  -27.0530   22.2000  -11.2610 O   0  0  0  0  0  0  0  0  0  0  0  0
  -26.1870   22.4140   -8.4360 S   0  0  0  0  0  0  0  0  0  0  0  0
  -24.6420   22.7970   -7.5130 C   0  0  0  0  0  2  0  0  0  0  0  0
  -24.3130   24.2100   -7.8410 C   0  0  0  0  0  3  0  0  0  0  0  0
  -23.8380   25.0670   -6.9380 C   0  0  0  0  0  2  0  0  0  0  0  0
  -25.6350   20.1660  -10.4580 C   0  0  0  0  0  2  0  0  0  0  0  0
  -26.2920   19.5990  -11.6610 C   0  0  0  0  0  3  0  0  0  0  0  0
  -26.3770   18.2890  -11.8950 C   0  0  0  0  0  2  0  0  0  0  0  0
  1  2  2  6  0  0  0
  1  3  1  0  0  0  0
  3  4  1  0  0  0  0
  5  4  1  0  0  0  0
  5  6  2  0  0  0  0
  7  1  1  0  0  0  0
  8  7  1  0  0  0  0
  9  8  2  0  0  0  0
M  END
>  <MODEL>
5

>  <REMARK>
 VINA RESULT:    -4.107      2.991      4.522
 INTER + INTRA:          -5.423
 INTER:                  -5.362
 INTRA:                  -0.061
 UNBOUND:                -0.115
  5 active torsions:
  status: ('A' for Active; 'I' for Inactive)
    1  A    between atoms: S1_1  and  S2_2 
    2  A    between atoms: S1_1  and  C1_4 
    3  A    between atoms: S2_2  and  C2_5 
    4  A    between atoms: C1_4  and  C3_6 
    5  A    between atoms: C2_5  and  C4_7 

>  <TORSDO>
F 5

$$$$
./Alicina.pdbqt
 OpenBabel10282519553D

  9  8  0  0  0  0  0  0  0  0999 V2000
  -19.4980    0.4770   12.1880 S   0  0  1  0  0  0  0  0  0  0  0  0
  -18.5790    1.5400   12.6280 O   0  0  0  0  0  0  0  0  0  0  0  0
  -21.4820    0.9820   12.4440 S   0  0  0  0  0  0  0  0  0  0  0  0
  -22.0530    2.2760   11.2670 C   0  0  0  0  0  2  0  0  0  0  0  0
  -22.3240    3.4830   12.0920 C   0  0  0  0  0  3  0  0  0  0  0  0
  -22.1160    3.5180   13.4080 C   0  0  0  0  0  2  0  0  0  0  0  0
  -19.2850    0.4810   10.3540 C   0  0  0  0  0  2  0  0  0  0  0  0
  -18.0300   -0.2240    9.9920 C   0  0  0  0  0  3  0  0  0  0  0  0
  -16.8670    0.4040    9.8170 C   0  0  0  0  0  2  0  0  0  0  0  0
  1  3  1  0  0  0  0
  1  2  2  1  0  0  0
  4  5  1  0  0  0  0
  4  3  1  0  0  0  0
  5  6  2  0  0  0  0
  7  1  1  0  0  0  0
  8  7  1  0  0  0  0
  9  8  2  0  0  0  0
M  END
>  <MODEL>
6

>  <REMARK>
 VINA RESULT:    -4.046     29.237     29.911
 INTER + INTRA:          -5.344
 INTER:                  -5.240
 INTRA:                  -0.104
 UNBOUND:                -0.115
  5 active torsions:
  status: ('A' for Active; 'I' for Inactive)
    1  A    between atoms: S1_1  and  S2_2 
    2  A    between atoms: S1_1  and  C1_4 
    3  A    between atoms: S2_2  and  C2_5 
    4  A    between atoms: C1_4  and  C3_6 
    5  A    between atoms: C2_5  and  C4_7 

>  <TORSDO>
F 5

$$$$
./Alicina.pdbqt
 OpenBabel10282519553D

  9  8  0  0  0  0  0  0  0  0999 V2000
  -34.1270   24.4510  -11.3180 S   0  0  1  0  0  0  0  0  0  0  0  0
  -33.5440   25.7830  -11.5480 O   0  0  0  0  0  0  0  0  0  0  0  0
  -34.9550   23.6360  -13.0240 S   0  0  0  0  0  0  0  0  0  0  0  0
  -33.7560   23.5080  -14.4140 C   0  0  0  0  0  2  0  0  0  0  0  0
  -33.4340   22.0610  -14.5390 C   0  0  0  0  0  3  0  0  0  0  0  0
  -32.2510   21.5540  -14.1940 C   0  0  0  0  0  2  0  0  0  0  0  0
  -32.6410   23.3980  -11.0140 C   0  0  0  0  0  2  0  0  0  0  0  0
  -31.4100   24.2140  -11.1490 C   0  0  0  0  0  3  0  0  0  0  0  0
  -30.3350   23.8040  -11.8230 C   0  0  0  0  0  2  0  0  0  0  0  0
  1  2  2  6  0  0  0
  1  7  1  0  0  0  0
  3  1  1  0  0  0  0
  4  3  1  0  0  0  0
  5  4  1  0  0  0  0
  5  6  2  0  0  0  0
  8  7  1  0  0  0  0
  9  8  2  0  0  0  0
M  END
>  <MODEL>
7

>  <REMARK>
 VINA RESULT:    -3.962      7.924      8.774
 INTER + INTRA:          -5.236
 INTER:                  -4.882
 INTRA:                  -0.354
 UNBOUND:                -0.115
  5 active torsions:
  status: ('A' for Active; 'I' for Inactive)
    1  A    between atoms: S1_1  and  S2_2 
    2  A    between atoms: S1_1  and  C1_4 
    3  A    between atoms: S2_2  and  C2_5 
    4  A    between atoms: C1_4  and  C3_6 
    5  A    between atoms: C2_5  and  C4_7 

>  <TORSDO>
F 5

$$$$
./Alicina.pdbqt
 OpenBabel10282519553D

  9  8  0  0  0  0  0  0  0  0999 V2000
  -21.1020    0.6910   11.7170 S   0  0  1  0  0  0  0  0  0  0  0  0
  -21.2750    0.7450   10.2560 O   0  0  0  0  0  0  0  0  0  0  0  0
  -19.3880   -0.3090   12.2820 S   0  0  0  0  0  0  0  0  0  0  0  0
  -17.8790    0.3140   11.4340 C   0  0  0  0  0  2  0  0  0  0  0  0
  -17.8870   -0.3080   10.0830 C   0  0  0  0  0  3  0  0  0  0  0  0
  -17.9360    0.4080    8.9600 C   0  0  0  0  0  2  0  0  0  0  0  0
  -20.7400    2.4490   12.1540 C   0  0  0  0  0  2  0  0  0  0  0  0
  -21.7210    2.9300   13.1560 C   0  0  0  0  0  3  0  0  0  0  0  0
  -22.8480    3.5620   12.8270 C   0  0  0  0  0  2  0  0  0  0  0  0
  1  2  2  6  0  0  0
  1  7  1  0  0  0  0
  1  3  1  0  0  0  0
  4  3  1  0  0  0  0
  5  4  1  0  0  0  0
  6  5  2  0  0  0  0
  7  8  1  0  0  0  0
  9  8  2  0  0  0  0
M  END
>  <MODEL>
8

>  <REMARK>
 VINA RESULT:    -3.957     29.296     30.267
 INTER + INTRA:          -5.229
 INTER:                  -5.082
 INTRA:                  -0.147
 UNBOUND:                -0.115
  5 active torsions:
  status: ('A' for Active; 'I' for Inactive)
    1  A    between atoms: S1_1  and  S2_2 
    2  A    between atoms: S1_1  and  C1_4 
    3  A    between atoms: S2_2  and  C2_5 
    4  A    between atoms: C1_4  and  C3_6 
    5  A    between atoms: C2_5  and  C4_7 

>  <TORSDO>
F 5

$$$$
./Alicina.pdbqt
 OpenBabel10282519553D

  9  8  0  0  0  0  0  0  0  0999 V2000
  -34.5290   23.3990  -14.1240 S   0  0  1  0  0  0  0  0  0  0  0  0
  -35.8440   23.1700  -13.5020 O   0  0  0  0  0  0  0  0  0  0  0  0
  -32.9800   23.3340  -12.7620 S   0  0  0  0  0  0  0  0  0  0  0  0
  -33.2340   24.4610  -11.3300 C   0  0  0  0  0  2  0  0  0  0  0  0
  -32.1530   25.4780  -11.4170 C   0  0  0  0  0  3  0  0  0  0  0  0
  -30.8620   25.1530  -11.4800 C   0  0  0  0  0  2  0  0  0  0  0  0
  -34.2800   21.8730  -15.1340 C   0  0  0  0  0  2  0  0  0  0  0  0
  -33.0690   21.1540  -14.6700 C   0  0  0  0  0  3  0  0  0  0  0  0
  -32.4910   20.1750  -15.3670 C   0  0  0  0  0  2  0  0  0  0  0  0
  1  2  2  1  0  0  0
  1  3  1  0  0  0  0
  3  4  1  0  0  0  0
  5  4  1  0  0  0  0
  6  5  2  0  0  0  0
  7  8  1  0  0  0  0
  7  1  1  0  0  0  0
  9  8  2  0  0  0  0
M  END
>  <MODEL>
9

>  <REMARK>
 VINA RESULT:    -3.895      8.630      9.332
 INTER + INTRA:          -5.149
 INTER:                  -5.075
 INTRA:                  -0.074
 UNBOUND:                -0.115
  5 active torsions:
  status: ('A' for Active; 'I' for Inactive)
    1  A    between atoms: S1_1  and  S2_2 
    2  A    between atoms: S1_1  and  C1_4 
    3  A    between atoms: S2_2  and  C2_5 
    4  A    between atoms: C1_4  and  C3_6 
    5  A    between atoms: C2_5  and  C4_7 

>  <TORSDO>
F 5

$$$$
./Alicina.pdbqt
 OpenBabel10282519553D

  9  8  0  0  0  0  0  0  0  0999 V2000
  -32.1390   24.8790  -10.8750 S   0  0  1  0  0  0  0  0  0  0  0  0
  -30.9150   25.4720  -11.4400 O   0  0  0  0  0  0  0  0  0  0  0  0
  -33.8060   25.2320  -12.0370 S   0  0  0  0  0  0  0  0  0  0  0  0
  -34.6890   23.6900  -12.5160 C   0  0  0  0  0  2  0  0  0  0  0  0
  -34.3260   23.4390  -13.9360 C   0  0  0  0  0  3  0  0  0  0  0  0
  -34.4790   22.2510  -14.5200 C   0  0  0  0  0  2  0  0  0  0  0  0
  -31.8490   23.0660  -11.0750 C   0  0  0  0  0  2  0  0  0  0  0  0
  -31.0190   22.8190  -12.2780 C   0  0  0  0  0  3  0  0  0  0  0  0
  -31.1510   21.7350  -13.0440 C   0  0  0  0  0  2  0  0  0  0  0  0
  1  2  2  6  0  0  0
  3  1  1  0  0  0  0
  4  3  1  0  0  0  0
  5  4  1  0  0  0  0
  6  5  2  0  0  0  0
  7  1  1  0  0  0  0
  8  7  1  0  0  0  0
  9  8  2  0  0  0  0
M  END
>  <MODEL>
10

>  <REMARK>
 VINA RESULT:    -3.881      7.624      8.374
 INTER + INTRA:          -5.131
 INTER:                  -4.742
 INTRA:                  -0.388
 UNBOUND:                -0.115
  5 active torsions:
  status: ('A' for Active; 'I' for Inactive)
    1  A    between atoms: S1_1  and  S2_2 
    2  A    between atoms: S1_1  and  C1_4 
    3  A    between atoms: S2_2  and  C2_5 
    4  A    between atoms: C1_4  and  C3_6 
    5  A    between atoms: C2_5  and  C4_7 

>  <TORSDO>
F 5

$$$$
./Alicina.pdbqt
 OpenBabel10282519553D

  9  8  0  0  0  0  0  0  0  0999 V2000
  -31.5570   22.5610  -12.9240 S   0  0  1  0  0  0  0  0  0  0  0  0
  -30.8050   21.2990  -12.8260 O   0  0  0  0  0  0  0  0  0  0  0  0
  -33.4530   22.3040  -13.6930 S   0  0  0  0  0  0  0  0  0  0  0  0
  -34.1740   23.8580  -14.3640 C   0  0  0  0  0  2  0  0  0  0  0  0
  -34.7430   24.5780  -13.1940 C   0  0  0  0  0  3  0  0  0  0  0  0
  -35.2370   23.9470  -12.1290 C   0  0  0  0  0  2  0  0  0  0  0  0
  -31.8630   22.9960  -11.1550 C   0  0  0  0  0  2  0  0  0  0  0  0
  -30.9980   24.1340  -10.7600 C   0  0  0  0  0  3  0  0  0  0  0  0
  -31.1340   25.3620  -11.2620 C   0  0  0  0  0  2  0  0  0  0  0  0
  1  2  2  1  0  0  0
  1  7  1  0  0  0  0
  3  1  1  0  0  0  0
  4  3  1  0  0  0  0
  4  5  1  0  0  0  0
  5  6  2  0  0  0  0
  7  8  1  0  0  0  0
  9  8  2  0  0  0  0
M  END
>  <MODEL>
11

>  <REMARK>
 VINA RESULT:    -3.822      7.152      7.921
 INTER + INTRA:          -5.054
 INTER:                  -4.779
 INTRA:                  -0.275
 UNBOUND:                -0.115
  5 active torsions:
  status: ('A' for Active; 'I' for Inactive)
    1  A    between atoms: S1_1  and  S2_2 
    2  A    between atoms: S1_1  and  C1_4 
    3  A    between atoms: S2_2  and  C2_5 
    4  A    between atoms: C1_4  and  C3_6 
    5  A    between atoms: C2_5  and  C4_7 

>  <TORSDO>
F 5

$$$$
./Alicina.pdbqt
 OpenBabel10282519553D

  9  8  0  0  0  0  0  0  0  0999 V2000
  -38.8170   31.3000    4.7430 S   0  0  1  0  0  0  0  0  0  0  0  0
  -38.2700   31.8830    5.9800 O   0  0  0  0  0  0  0  0  0  0  0  0
  -40.8540   30.9880    4.8410 S   0  0  0  0  0  0  0  0  0  0  0  0
  -41.7420   32.3180    5.7510 C   0  0  0  0  0  2  0  0  0  0  0  0
  -42.4380   33.1240    4.7130 C   0  0  0  0  0  3  0  0  0  0  0  0
  -43.1640   32.5740    3.7400 C   0  0  0  0  0  2  0  0  0  0  0  0
  -38.6500   32.6810    3.5280 C   0  0  0  0  0  2  0  0  0  0  0  0
  -39.5290   32.4310    2.3590 C   0  0  0  0  0  3  0  0  0  0  0  0
  -40.1720   33.4040    1.7100 C   0  0  0  0  0  2  0  0  0  0  0  0
  1  3  1  0  0  0  0
  1  2  2  1  0  0  0
  3  4  1  0  0  0  0
  5  4  1  0  0  0  0
  6  5  2  0  0  0  0
  7  1  1  0  0  0  0
  8  7  1  0  0  0  0
  9  8  2  0  0  0  0
M  END
>  <MODEL>
12

>  <REMARK>
 VINA RESULT:    -3.818     19.067     20.301
 INTER + INTRA:          -5.049
 INTER:                  -4.652
 INTRA:                  -0.397
 UNBOUND:                -0.115
  5 active torsions:
  status: ('A' for Active; 'I' for Inactive)
    1  A    between atoms: S1_1  and  S2_2 
    2  A    between atoms: S1_1  and  C1_4 
    3  A    between atoms: S2_2  and  C2_5 
    4  A    between atoms: C1_4  and  C3_6 
    5  A    between atoms: C2_5  and  C4_7 

>  <TORSDO>
F 5

$$$$
./Alicina.pdbqt
 OpenBabel10282519553D

  9  8  0  0  0  0  0  0  0  0999 V2000
  -18.4950    0.4580   11.5670 S   0  0  1  0  0  0  0  0  0  0  0  0
  -17.1230    0.5630   11.0420 O   0  0  0  0  0  0  0  0  0  0  0  0
  -19.9310    0.7330   10.1120 S   0  0  0  0  0  0  0  0  0  0  0  0
  -21.4210    1.6180   10.7310 C   0  0  0  0  0  2  0  0  0  0  0  0
  -21.0990    2.0300   12.1230 C   0  0  0  0  0  3  0  0  0  0  0  0
  -21.6300    3.1100   12.6960 C   0  0  0  0  0  2  0  0  0  0  0  0
  -18.6390   -1.3350   11.9840 C   0  0  0  0  0  2  0  0  0  0  0  0
  -19.6370   -1.5220   13.0660 C   0  0  0  0  0  3  0  0  0  0  0  0
  -20.9350   -1.7170   12.8340 C   0  0  0  0  0  2  0  0  0  0  0  0
  1  2  2  6  0  0  0
  1  7  1  0  0  0  0
  3  4  1  0  0  0  0
  3  1  1  0  0  0  0
  4  5  1  0  0  0  0
  5  6  2  0  0  0  0
  7  8  1  0  0  0  0
  9  8  2  0  0  0  0
M  END
>  <MODEL>
13

>  <REMARK>
 VINA RESULT:    -3.772     30.128     30.875
 INTER + INTRA:          -4.990
 INTER:                  -4.692
 INTRA:                  -0.297
 UNBOUND:                -0.115
  5 active torsions:
  status: ('A' for Active; 'I' for Inactive)
    1  A    between atoms: S1_1  and  S2_2 
    2  A    between atoms: S1_1  and  C1_4 
    3  A    between atoms: S2_2  and  C2_5 
    4  A    between atoms: C1_4  and  C3_6 
    5  A    between atoms: C2_5  and  C4_7 

>  <TORSDO>
F 5

$$$$
./Alicina.pdbqt
 OpenBabel10282519553D

  9  8  0  0  0  0  0  0  0  0999 V2000
  -40.3240   33.1620    2.1780 S   0  0  1  0  0  0  0  0  0  0  0  0
  -39.5060   33.7510    1.1040 O   0  0  0  0  0  0  0  0  0  0  0  0
  -41.9620   32.1340    1.4610 S   0  0  0  0  0  0  0  0  0  0  0  0
  -43.1370   33.2080    0.5380 C   0  0  0  0  0  2  0  0  0  0  0  0
  -43.7770   32.3300   -0.4780 C   0  0  0  0  0  3  0  0  0  0  0  0
  -44.2750   32.7980   -1.6230 C   0  0  0  0  0  2  0  0  0  0  0  0
  -39.2330   31.8270    2.8410 C   0  0  0  0  0  2  0  0  0  0  0  0
  -38.6980   32.2270    4.1660 C   0  0  0  0  0  3  0  0  0  0  0  0
  -38.7830   31.4530    5.2490 C   0  0  0  0  0  2  0  0  0  0  0  0
  1  2  2  6  0  0  0
  1  7  1  0  0  0  0
  3  1  1  0  0  0  0
  4  3  1  0  0  0  0
  5  4  1  0  0  0  0
  6  5  2  0  0  0  0
  7  8  1  0  0  0  0
  8  9  2  0  0  0  0
M  END
>  <MODEL>
14

>  <REMARK>
 VINA RESULT:    -3.768     18.848     19.761
 INTER + INTRA:          -4.984
 INTER:                  -4.943
 INTRA:                  -0.042
 UNBOUND:                -0.115
  5 active torsions:
  status: ('A' for Active; 'I' for Inactive)
    1  A    between atoms: S1_1  and  S2_2 
    2  A    between atoms: S1_1  and  C1_4 
    3  A    between atoms: S2_2  and  C2_5 
    4  A    between atoms: C1_4  and  C3_6 
    5  A    between atoms: C2_5  and  C4_7 

>  <TORSDO>
F 5

$$$$
./Alicina.pdbqt
 OpenBabel10282519553D

  9  8  0  0  0  0  0  0  0  0999 V2000
  -20.5610    0.6650   11.5900 S   0  0  1  0  0  0  0  0  0  0  0  0
  -21.2350    0.4930   10.2920 O   0  0  0  0  0  0  0  0  0  0  0  0
  -21.6560   -0.0940   13.1650 S   0  0  0  0  0  0  0  0  0  0  0  0
  -22.6320    1.1910   14.0480 C   0  0  0  0  0  2  0  0  0  0  0  0
  -22.8610    2.2780   13.0580 C   0  0  0  0  0  3  0  0  0  0  0  0
  -22.4550    3.5310   13.2580 C   0  0  0  0  0  2  0  0  0  0  0  0
  -19.1260   -0.4910   11.4650 C   0  0  0  0  0  2  0  0  0  0  0  0
  -17.9990    0.1800   10.7720 C   0  0  0  0  0  3  0  0  0  0  0  0
  -17.7940    0.0880    9.4570 C   0  0  0  0  0  2  0  0  0  0  0  0
  1  2  2  6  0  0  0
  1  3  1  0  0  0  0
  3  4  1  0  0  0  0
  5  6  2  0  0  0  0
  5  4  1  0  0  0  0
  7  1  1  0  0  0  0
  8  7  1  0  0  0  0
  9  8  2  0  0  0  0
M  END
>  <MODEL>
15

>  <REMARK>
 VINA RESULT:    -3.756     29.709     30.354
 INTER + INTRA:          -4.969
 INTER:                  -4.828
 INTRA:                  -0.140
 UNBOUND:                -0.115
  5 active torsions:
  status: ('A' for Active; 'I' for Inactive)
    1  A    between atoms: S1_1  and  S2_2 
    2  A    between atoms: S1_1  and  C1_4 
    3  A    between atoms: S2_2  and  C2_5 
    4  A    between atoms: C1_4  and  C3_6 
    5  A    between atoms: C2_5  and  C4_7 

>  <TORSDO>
F 5

$$$$
./Alicina.pdbqt
 OpenBabel10282519553D

  9  8  0  0  0  0  0  0  0  0999 V2000
  -31.8430   22.7830  -12.9140 S   0  0  1  0  0  0  0  0  0  0  0  0
  -31.1540   21.7430  -12.1310 O   0  0  0  0  0  0  0  0  0  0  0  0
  -33.2610   22.0080  -14.1970 S   0  0  0  0  0  0  0  0  0  0  0  0
  -32.6730   20.5190  -15.1040 C   0  0  0  0  0  2  0  0  0  0  0  0
  -31.7230   21.0190  -16.1320 C   0  0  0  0  0  3  0  0  0  0  0  0
  -30.4090   21.0980  -15.9220 C   0  0  0  0  0  2  0  0  0  0  0  0
  -32.8480   23.6610  -11.6380 C   0  0  0  0  0  2  0  0  0  0  0  0
  -31.9700   24.5270  -10.8140 C   0  0  0  0  0  3  0  0  0  0  0  0
  -30.9750   25.2530  -11.3260 C   0  0  0  0  0  2  0  0  0  0  0  0
  1  2  2  1  0  0  0
  1  7  1  0  0  0  0
  3  1  1  0  0  0  0
  4  3  1  0  0  0  0
  5  6  2  0  0  0  0
  5  4  1  0  0  0  0
  7  8  1  0  0  0  0
  9  8  2  0  0  0  0
M  END
>  <MODEL>
16

>  <REMARK>
 VINA RESULT:    -3.751      7.861      8.788
 INTER + INTRA:          -4.963
 INTER:                  -4.841
 INTRA:                  -0.122
 UNBOUND:                -0.115
  5 active torsions:
  status: ('A' for Active; 'I' for Inactive)
    1  A    between atoms: S1_1  and  S2_2 
    2  A    between atoms: S1_1  and  C1_4 
    3  A    between atoms: S2_2  and  C2_5 
    4  A    between atoms: C1_4  and  C3_6 
    5  A    between atoms: C2_5  and  C4_7 

>  <TORSDO>
F 5

$$$$
./Alicina.pdbqt
 OpenBabel10282519553D

  9  8  0  0  0  0  0  0  0  0999 V2000
   -7.6580   38.1190    9.3790 S   0  0  1  0  0  0  0  0  0  0  0  0
   -7.1920   38.8970    8.2180 O   0  0  0  0  0  0  0  0  0  0  0  0
   -6.1150   37.2050   10.3980 S   0  0  0  0  0  0  0  0  0  0  0  0
   -6.6640   35.7480   11.3780 C   0  0  0  0  0  2  0  0  0  0  0  0
   -7.9990   35.3760   10.8390 C   0  0  0  0  0  3  0  0  0  0  0  0
   -8.1520   34.6150    9.7560 C   0  0  0  0  0  2  0  0  0  0  0  0
   -8.2340   39.4270   10.5480 C   0  0  0  0  0  2  0  0  0  0  0  0
   -9.4640   38.9750   11.2430 C   0  0  0  0  0  3  0  0  0  0  0  0
   -9.4440   38.2100   12.3350 C   0  0  0  0  0  2  0  0  0  0  0  0
  1  2  2  6  0  0  0
  1  3  1  0  0  0  0
  1  7  1  0  0  0  0
  3  4  1  0  0  0  0
  5  4  1  0  0  0  0
  6  5  2  0  0  0  0
  7  8  1  0  0  0  0
  8  9  2  0  0  0  0
M  END
>  <MODEL>
17

>  <REMARK>
 VINA RESULT:    -3.742     29.301     30.005
 INTER + INTRA:          -4.951
 INTER:                  -4.789
 INTRA:                  -0.162
 UNBOUND:                -0.115
  5 active torsions:
  status: ('A' for Active; 'I' for Inactive)
    1  A    between atoms: S1_1  and  S2_2 
    2  A    between atoms: S1_1  and  C1_4 
    3  A    between atoms: S2_2  and  C2_5 
    4  A    between atoms: C1_4  and  C3_6 
    5  A    between atoms: C2_5  and  C4_7 

>  <TORSDO>
F 5

$$$$
./Alicina.pdbqt
 OpenBabel10282519553D

  9  8  0  0  0  0  0  0  0  0999 V2000
  -39.0550   31.9420    4.7660 S   0  0  1  0  0  0  0  0  0  0  0  0
  -38.2620   30.8120    5.2800 O   0  0  0  0  0  0  0  0  0  0  0  0
  -39.3260   31.8620    2.7220 S   0  0  0  0  0  0  0  0  0  0  0  0
  -40.0830   33.3930    2.0370 C   0  0  0  0  0  2  0  0  0  0  0  0
  -41.3830   32.9740    1.4490 C   0  0  0  0  0  3  0  0  0  0  0  0
  -42.4360   33.7880    1.3760 C   0  0  0  0  0  2  0  0  0  0  0  0
  -40.7410   31.6020    5.4390 C   0  0  0  0  0  2  0  0  0  0  0  0
  -41.5500   32.8460    5.4200 C   0  0  0  0  0  3  0  0  0  0  0  0
  -42.7960   32.8960    4.9470 C   0  0  0  0  0  2  0  0  0  0  0  0
  1  2  2  1  0  0  0
  1  7  1  0  0  0  0
  3  1  1  0  0  0  0
  4  3  1  0  0  0  0
  5  4  1  0  0  0  0
  6  5  2  0  0  0  0
  8  7  1  0  0  0  0
  9  8  2  0  0  0  0
M  END
>  <MODEL>
18

>  <REMARK>
 VINA RESULT:    -3.734     19.238     20.481
 INTER + INTRA:          -4.940
 INTER:                  -4.573
 INTRA:                  -0.367
 UNBOUND:                -0.115
  5 active torsions:
  status: ('A' for Active; 'I' for Inactive)
    1  A    between atoms: S1_1  and  S2_2 
    2  A    between atoms: S1_1  and  C1_4 
    3  A    between atoms: S2_2  and  C2_5 
    4  A    between atoms: C1_4  and  C3_6 
    5  A    between atoms: C2_5  and  C4_7 

>  <TORSDO>
F 5

$$$$
./Alicina.pdbqt
 OpenBabel10282519553D

  9  8  0  0  0  0  0  0  0  0999 V2000
  -41.5880   33.0440    4.5110 S   0  0  1  0  0  0  0  0  0  0  0  0
  -41.3660   33.0470    5.9670 O   0  0  0  0  0  0  0  0  0  0  0  0
  -40.6190   31.4910    3.5600 S   0  0  0  0  0  0  0  0  0  0  0  0
  -40.1500   31.8900    1.8260 C   0  0  0  0  0  2  0  0  0  0  0  0
  -39.7560   33.3240    1.8330 C   0  0  0  0  0  3  0  0  0  0  0  0
  -38.5750   33.7450    2.2850 C   0  0  0  0  0  2  0  0  0  0  0  0
  -43.3730   32.5920    4.3680 C   0  0  0  0  0  2  0  0  0  0  0  0
  -43.7920   32.6420    2.9460 C   0  0  0  0  0  3  0  0  0  0  0  0
  -43.7730   33.7600    2.2190 C   0  0  0  0  0  2  0  0  0  0  0  0
  1  2  2  1  0  0  0
  3  1  1  0  0  0  0
  4  5  1  0  0  0  0
  4  3  1  0  0  0  0
  5  6  2  0  0  0  0
  7  1  1  0  0  0  0
  8  7  1  0  0  0  0
  9  8  2  0  0  0  0
M  END
>  <MODEL>
19

>  <REMARK>
 VINA RESULT:    -3.619     19.423     21.131
 INTER + INTRA:          -4.792
 INTER:                  -4.528
 INTRA:                  -0.264
 UNBOUND:                -0.115
  5 active torsions:
  status: ('A' for Active; 'I' for Inactive)
    1  A    between atoms: S1_1  and  S2_2 
    2  A    between atoms: S1_1  and  C1_4 
    3  A    between atoms: S2_2  and  C2_5 
    4  A    between atoms: C1_4  and  C3_6 
    5  A    between atoms: C2_5  and  C4_7 

>  <TORSDO>
F 5

$$$$
./Alicina.pdbqt
 OpenBabel10282519553D

  9  8  0  0  0  0  0  0  0  0999 V2000
  -40.6460   31.1580    4.7490 S   0  0  1  0  0  0  0  0  0  0  0  0
  -40.5380   32.3250    5.6400 O   0  0  0  0  0  0  0  0  0  0  0  0
  -42.1870   31.3310    3.3890 S   0  0  0  0  0  0  0  0  0  0  0  0
  -41.6100   31.3140    1.6420 C   0  0  0  0  0  2  0  0  0  0  0  0
  -42.0480   32.6090    1.0570 C   0  0  0  0  0  3  0  0  0  0  0  0
  -42.1500   33.7270    1.7770 C   0  0  0  0  0  2  0  0  0  0  0  0
  -39.1300   31.2960    3.7030 C   0  0  0  0  0  2  0  0  0  0  0  0
  -38.6230   32.6900    3.7340 C   0  0  0  0  0  3  0  0  0  0  0  0
  -38.5630   33.4680    2.6520 C   0  0  0  0  0  2  0  0  0  0  0  0
  1  2  2  1  0  0  0
  3  1  1  0  0  0  0
  4  3  1  0  0  0  0
  5  4  1  0  0  0  0
  5  6  2  0  0  0  0
  7  8  1  0  0  0  0
  7  1  1  0  0  0  0
  9  8  2  0  0  0  0
M  END
>  <MODEL>
20

>  <REMARK>
 VINA RESULT:    -3.598     19.446     19.901
 INTER + INTRA:          -4.765
 INTER:                  -4.340
 INTRA:                  -0.425
 UNBOUND:                -0.115
  5 active torsions:
  status: ('A' for Active; 'I' for Inactive)
    1  A    between atoms: S1_1  and  S2_2 
    2  A    between atoms: S1_1  and  C1_4 
    3  A    between atoms: S2_2  and  C2_5 
    4  A    between atoms: C1_4  and  C3_6 
    5  A    between atoms: C2_5  and  C4_7 

>  <TORSDO>
F 5

$$$$
