./AnatoxinaA.pdbqt
 OpenBabel10282519553D

 14 15  0  0  1  0  0  0  0  0999 V2000
  -26.2600   23.1800   -6.4360 N   0  0  0  0  0  4  0  0  0  0  0  0
  -25.2200   23.8260   -5.5050 C   0  0  1  0  0  3  0  0  0  0  0  0
  -25.4230   22.3700   -7.4520 C   0  0  2  0  0  3  0  0  0  0  0  0
  -24.1460   22.7380   -5.3660 C   0  0  0  0  0  2  0  0  0  0  0  0
  -24.1850   21.9120   -6.6630 C   0  0  0  0  0  2  0  0  0  0  0  0
  -24.7110   25.1320   -6.1230 C   0  0  0  0  0  2  0  0  0  0  0  0
  -25.1360   23.2800   -8.6010 C   0  0  0  0  0  0  0  0  0  0  0  0
  -23.7750   24.9770   -7.3280 C   0  0  0  0  0  2  0  0  0  0  0  0
  -24.4240   24.4140   -8.5460 C   0  0  0  0  0  3  0  0  0  0  0  0
  -26.8920   22.5540   -5.9040 H   0  0  0  0  0  0  0  0  0  0  0  0
  -26.8410   23.8860   -6.9320 H   0  0  0  0  0  0  0  0  0  0  0  0
  -25.8740   22.8910   -9.8480 C   0  0  0  0  0  0  0  0  0  0  0  0
  -27.0230   22.5420   -9.7130 O   0  0  0  0  0  0  0  0  0  0  0  0
  -25.1770   22.9430  -11.1560 C   0  0  0  0  0  1  0  0  0  0  0  0
  1 10  1  0  0  0  0
  1  2  1  0  0  0  0
  2  6  1  6  0  0  0
  2  4  1  0  0  0  0
  3  5  1  1  0  0  0
  3  1  1  0  0  0  0
  5  4  1  0  0  0  0
  7  9  2  0  0  0  0
  7  3  1  0  0  0  0
  8  6  1  0  0  0  0
  9  8  1  0  0  0  0
 11  1  1  0  0  0  0
 12 13  2  0  0  0  0
 12  7  1  0  0  0  0
 14 12  1  0  0  0  0
M  END
>  <MODEL>
1

>  <REMARK>
 VINA RESULT:    -6.459      0.000      0.000
 INTER + INTRA:          -7.018
 INTER:                  -6.836
 INTRA:                  -0.181
 UNBOUND:                -0.181
  1 active torsions:
  status: ('A' for Active; 'I' for Inactive)
    1  A    between atoms: C6_8  and  C9_11 

>  <TORSDO>
F 1

$$$$
./AnatoxinaA.pdbqt
 OpenBabel10282519553D

 14 15  0  0  1  0  0  0  0  0999 V2000
  -31.7370   22.7090  -10.6280 N   0  0  0  0  0  4  0  0  0  0  0  0
  -32.5550   24.0030  -10.4780 C   0  0  1  0  0  3  0  0  0  0  0  0
  -30.9170   22.9150  -11.9230 C   0  0  2  0  0  3  0  0  0  0  0  0
  -31.5850   25.0920  -10.9560 C   0  0  0  0  0  2  0  0  0  0  0  0
  -30.6450   24.4280  -11.9770 C   0  0  0  0  0  2  0  0  0  0  0  0
  -33.8400   23.9030  -11.3050 C   0  0  0  0  0  2  0  0  0  0  0  0
  -31.7420   22.3830  -13.0480 C   0  0  0  0  0  0  0  0  0  0  0  0
  -33.6620   23.9990  -12.8250 C   0  0  0  0  0  2  0  0  0  0  0  0
  -32.9350   22.8510  -13.4370 C   0  0  0  0  0  3  0  0  0  0  0  0
  -31.1060   22.5750   -9.8160 H   0  0  0  0  0  0  0  0  0  0  0  0
  -32.3390   21.8670  -10.7160 H   0  0  0  0  0  0  0  0  0  0  0  0
  -31.1770   21.1230  -13.6360 C   0  0  0  0  0  0  0  0  0  0  0  0
  -30.1820   20.6790  -13.1140 O   0  0  0  0  0  0  0  0  0  0  0  0
  -31.8420   20.5000  -14.8050 C   0  0  0  0  0  1  0  0  0  0  0  0
  1  2  1  0  0  0  0
  1 10  1  0  0  0  0
  2  6  1  6  0  0  0
  3  5  1  6  0  0  0
  3  1  1  0  0  0  0
  4  2  1  0  0  0  0
  5  4  1  0  0  0  0
  7  3  1  0  0  0  0
  8  6  1  0  0  0  0
  9  7  2  0  0  0  0
  9  8  1  0  0  0  0
 11  1  1  0  0  0  0
 12 13  2  0  0  0  0
 12  7  1  0  0  0  0
 14 12  1  0  0  0  0
M  END
>  <MODEL>
2

>  <REMARK>
 VINA RESULT:    -6.420      7.376      8.579
 INTER + INTRA:          -6.976
 INTER:                  -6.839
 INTRA:                  -0.138
 UNBOUND:                -0.181
  1 active torsions:
  status: ('A' for Active; 'I' for Inactive)
    1  A    between atoms: C6_8  and  C9_11 

>  <TORSDO>
F 1

$$$$
./AnatoxinaA.pdbqt
 OpenBabel10282519553D

 14 15  0  0  1  0  0  0  0  0999 V2000
  -25.8200   25.1550   -7.4260 N   0  0  0  0  0  4  0  0  0  0  0  0
  -24.5140   24.5250   -7.9390 C   0  0  1  0  0  3  0  0  0  0  0  0
  -26.3280   24.1740   -6.3450 C   0  0  2  0  0  3  0  0  0  0  0  0
  -23.8870   23.9300   -6.6690 C   0  0  0  0  0  2  0  0  0  0  0  0
  -25.0520   23.5780   -5.7270 C   0  0  0  0  0  2  0  0  0  0  0  0
  -24.8270   23.4920   -9.0250 C   0  0  0  0  0  2  0  0  0  0  0  0
  -27.2130   23.1880   -7.0340 C   0  0  0  0  0  0  0  0  0  0  0  0
  -25.4580   22.1830   -8.5370 C   0  0  0  0  0  2  0  0  0  0  0  0
  -26.8360   22.3260   -7.9880 C   0  0  0  0  0  3  0  0  0  0  0  0
  -25.6430   26.0900   -7.0140 H   0  0  0  0  0  0  0  0  0  0  0  0
  -26.5320   25.2590   -8.1770 H   0  0  0  0  0  0  0  0  0  0  0  0
  -28.6590   23.3540   -6.6700 C   0  0  0  0  0  0  0  0  0  0  0  0
  -29.4100   22.4710   -7.0110 O   0  0  0  0  0  0  0  0  0  0  0  0
  -29.0920   24.5650   -5.9320 C   0  0  0  0  0  1  0  0  0  0  0  0
  1 10  1  0  0  0  0
  1  3  1  0  0  0  0
  2  6  1  6  0  0  0
  2  1  1  0  0  0  0
  2  4  1  0  0  0  0
  3  5  1  6  0  0  0
  4  5  1  0  0  0  0
  6  8  1  0  0  0  0
  7 12  1  0  0  0  0
  7  3  1  0  0  0  0
  8  9  1  0  0  0  0
  9  7  2  0  0  0  0
 11  1  1  0  0  0  0
 12 14  1  0  0  0  0
 13 12  2  0  0  0  0
M  END
>  <MODEL>
3

>  <REMARK>
 VINA RESULT:    -6.393      2.195      3.436
 INTER + INTRA:          -6.948
 INTER:                  -6.815
 INTRA:                  -0.133
 UNBOUND:                -0.181
  1 active torsions:
  status: ('A' for Active; 'I' for Inactive)
    1  A    between atoms: C6_8  and  C9_11 

>  <TORSDO>
F 1

$$$$
./AnatoxinaA.pdbqt
 OpenBabel10282519553D

 14 15  0  0  1  0  0  0  0  0999 V2000
  -25.6960   23.4440   -5.5420 N   0  0  0  0  0  4  0  0  0  0  0  0
  -26.4060   24.1130   -6.7310 C   0  0  1  0  0  3  0  0  0  0  0  0
  -24.2490   23.2100   -6.0340 C   0  0  2  0  0  3  0  0  0  0  0  0
  -25.3240   25.0310   -7.3170 C   0  0  0  0  0  2  0  0  0  0  0  0
  -23.9690   24.3760   -6.9960 C   0  0  0  0  0  2  0  0  0  0  0  0
  -26.9120   23.0420   -7.7030 C   0  0  0  0  0  2  0  0  0  0  0  0
  -24.2180   21.8550   -6.6610 C   0  0  0  0  0  0  0  0  0  0  0  0
  -25.8340   22.3360   -8.5340 C   0  0  0  0  0  2  0  0  0  0  0  0
  -24.9090   21.4750   -7.7440 C   0  0  0  0  0  3  0  0  0  0  0  0
  -25.7020   24.0650   -4.7120 H   0  0  0  0  0  0  0  0  0  0  0  0
  -26.1350   22.5390   -5.2760 H   0  0  0  0  0  0  0  0  0  0  0  0
  -23.4380   20.8600   -5.8530 C   0  0  0  0  0  0  0  0  0  0  0  0
  -23.0500   21.2240   -4.7690 O   0  0  0  0  0  0  0  0  0  0  0  0
  -23.1780   19.5100   -6.4100 C   0  0  0  0  0  1  0  0  0  0  0  0
  1 11  1  0  0  0  0
  1 10  1  0  0  0  0
  2  6  1  6  0  0  0
  2  1  1  0  0  0  0
  3  5  1  6  0  0  0
  3  1  1  0  0  0  0
  4  5  1  0  0  0  0
  4  2  1  0  0  0  0
  7  3  1  0  0  0  0
  7 12  1  0  0  0  0
  8  9  1  0  0  0  0
  8  6  1  0  0  0  0
  9  7  2  0  0  0  0
 12 13  2  0  0  0  0
 14 12  1  0  0  0  0
M  END
>  <MODEL>
4

>  <REMARK>
 VINA RESULT:    -6.227      2.301      3.783
 INTER + INTRA:          -6.772
 INTER:                  -6.636
 INTRA:                  -0.136
 UNBOUND:                -0.181
  1 active torsions:
  status: ('A' for Active; 'I' for Inactive)
    1  A    between atoms: C6_8  and  C9_11 

>  <TORSDO>
F 1

$$$$
./AnatoxinaA.pdbqt
 OpenBabel10282519553D

 14 15  0  0  1  0  0  0  0  0999 V2000
  -26.3300   23.9880   -7.5770 N   0  0  0  0  0  4  0  0  0  0  0  0
  -26.0280   23.4410   -6.1710 C   0  0  1  0  0  3  0  0  0  0  0  0
  -25.0570   23.6770   -8.3970 C   0  0  2  0  0  3  0  0  0  0  0  0
  -25.2360   22.1570   -6.4540 C   0  0  0  0  0  2  0  0  0  0  0  0
  -24.5110   22.3730   -7.7940 C   0  0  0  0  0  2  0  0  0  0  0  0
  -25.2560   24.4880   -5.3630 C   0  0  0  0  0  2  0  0  0  0  0  0
  -24.1540   24.8600   -8.2610 C   0  0  0  0  0  0  0  0  0  0  0  0
  -23.7930   24.6980   -5.7730 C   0  0  0  0  0  2  0  0  0  0  0  0
  -23.6090   25.3040   -7.1210 C   0  0  0  0  0  3  0  0  0  0  0  0
  -27.1530   23.5110   -7.9900 H   0  0  0  0  0  0  0  0  0  0  0  0
  -26.5130   25.0110   -7.5740 H   0  0  0  0  0  0  0  0  0  0  0  0
  -24.0270   25.6410   -9.5360 C   0  0  0  0  0  0  0  0  0  0  0  0
  -24.2020   25.0340  -10.5650 O   0  0  0  0  0  0  0  0  0  0  0  0
  -23.6940   27.0850   -9.4770 C   0  0  0  0  0  1  0  0  0  0  0  0
  1 11  1  0  0  0  0
  1  2  1  0  0  0  0
  2  4  1  6  0  0  0
  2  6  1  0  0  0  0
  3  7  1  0  0  0  0
  3  5  1  1  0  0  0
  3  1  1  0  0  0  0
  5  4  1  0  0  0  0
  7  9  2  0  0  0  0
  8  6  1  0  0  0  0
  9  8  1  0  0  0  0
 10  1  1  0  0  0  0
 12 14  1  0  0  0  0
 12  7  1  0  0  0  0
 13 12  2  0  0  0  0
M  END
>  <MODEL>
5

>  <REMARK>
 VINA RESULT:    -6.017      1.723      2.402
 INTER + INTRA:          -6.550
 INTER:                  -6.413
 INTRA:                  -0.137
 UNBOUND:                -0.181
  1 active torsions:
  status: ('A' for Active; 'I' for Inactive)
    1  A    between atoms: C6_8  and  C9_11 

>  <TORSDO>
F 1

$$$$
./AnatoxinaA.pdbqt
 OpenBabel10282519553D

 14 15  0  0  1  0  0  0  0  0999 V2000
  -24.8810   22.6900   -7.6120 N   0  0  0  0  0  4  0  0  0  0  0  0
  -25.3090   24.0720   -8.1340 C   0  0  1  0  0  3  0  0  0  0  0  0
  -25.1810   22.7370   -6.0960 C   0  0  2  0  0  3  0  0  0  0  0  0
  -26.5670   24.3880   -7.3110 C   0  0  0  0  0  2  0  0  0  0  0  0
  -26.4080   23.6550   -5.9680 C   0  0  0  0  0  2  0  0  0  0  0  0
  -24.1680   25.0760   -7.9420 C   0  0  0  0  0  2  0  0  0  0  0  0
  -23.9450   23.2410   -5.4250 C   0  0  0  0  0  0  0  0  0  0  0  0
  -23.9100   25.5210   -6.4970 C   0  0  0  0  0  2  0  0  0  0  0  0
  -23.3920   24.4480   -5.6020 C   0  0  0  0  0  3  0  0  0  0  0  0
  -25.4300   21.9380   -8.0680 H   0  0  0  0  0  0  0  0  0  0  0  0
  -23.8720   22.5010   -7.7710 H   0  0  0  0  0  0  0  0  0  0  0  0
  -23.2520   22.1830   -4.6180 C   0  0  0  0  0  0  0  0  0  0  0  0
  -23.1910   21.0800   -5.1060 O   0  0  0  0  0  0  0  0  0  0  0  0
  -22.6910   22.5280   -3.2890 C   0  0  0  0  0  1  0  0  0  0  0  0
  1  3  1  0  0  0  0
  2  6  1  1  0  0  0
  2  1  1  0  0  0  0
  2  4  1  0  0  0  0
  3  5  1  6  0  0  0
  3  7  1  0  0  0  0
  4  5  1  0  0  0  0
  6  8  1  0  0  0  0
  7 12  1  0  0  0  0
  8  9  1  0  0  0  0
  9  7  2  0  0  0  0
 10  1  1  0  0  0  0
 11  1  1  0  0  0  0
 12 14  1  0  0  0  0
 13 12  2  0  0  0  0
M  END
>  <MODEL>
6

>  <REMARK>
 VINA RESULT:    -5.873      2.340      4.085
 INTER + INTRA:          -6.398
 INTER:                  -6.217
 INTRA:                  -0.181
 UNBOUND:                -0.181
  1 active torsions:
  status: ('A' for Active; 'I' for Inactive)
    1  A    between atoms: C6_8  and  C9_11 

>  <TORSDO>
F 1

$$$$
./AnatoxinaA.pdbqt
 OpenBabel10282519553D

 14 15  0  0  1  0  0  0  0  0999 V2000
  -40.6010   33.7220    3.7180 N   0  0  0  0  0  4  0  0  0  0  0  0
  -40.9730   33.5660    2.2330 C   0  0  1  0  0  3  0  0  0  0  0  0
  -39.1910   33.1010    3.8340 C   0  0  2  0  0  3  0  0  0  0  0  0
  -39.6420   33.8140    1.5080 C   0  0  0  0  0  2  0  0  0  0  0  0
  -38.5260   33.3810    2.4760 C   0  0  0  0  0  2  0  0  0  0  0  0
  -41.5680   32.1760    1.9910 C   0  0  0  0  0  2  0  0  0  0  0  0
  -39.3790   31.6550    4.1560 C   0  0  0  0  0  0  0  0  0  0  0  0
  -40.5730   31.0100    2.0330 C   0  0  0  0  0  2  0  0  0  0  0  0
  -39.9820   30.7480    3.3750 C   0  0  0  0  0  3  0  0  0  0  0  0
  -40.5810   34.7230    3.9900 H   0  0  0  0  0  0  0  0  0  0  0  0
  -41.2640   33.2260    4.3470 H   0  0  0  0  0  0  0  0  0  0  0  0
  -38.9610   31.3130    5.5560 C   0  0  0  0  0  0  0  0  0  0  0  0
  -38.0590   31.9640    6.0280 O   0  0  0  0  0  0  0  0  0  0  0  0
  -39.6500   30.2160    6.2780 C   0  0  0  0  0  1  0  0  0  0  0  0
  1  3  1  0  0  0  0
  1 10  1  0  0  0  0
  1 11  1  0  0  0  0
  2  4  1  6  0  0  0
  2  1  1  0  0  0  0
  3  5  1  6  0  0  0
  3  7  1  0  0  0  0
  4  5  1  0  0  0  0
  6  8  1  0  0  0  0
  6  2  1  0  0  0  0
  7 12  1  0  0  0  0
  8  9  1  0  0  0  0
  9  7  2  0  0  0  0
 12 13  2  0  0  0  0
 12 14  1  0  0  0  0
M  END
>  <MODEL>
7

>  <REMARK>
 VINA RESULT:    -5.859     20.044     20.928
 INTER + INTRA:          -6.383
 INTER:                  -6.247
 INTRA:                  -0.136
 UNBOUND:                -0.181
  1 active torsions:
  status: ('A' for Active; 'I' for Inactive)
    1  A    between atoms: C6_8  and  C9_11 

>  <TORSDO>
F 1

$$$$
./AnatoxinaA.pdbqt
 OpenBabel10282519553D

 14 15  0  0  1  0  0  0  0  0999 V2000
  -33.2510   25.2330  -12.3890 N   0  0  0  0  0  4  0  0  0  0  0  0
  -32.2480   25.5350  -11.2630 C   0  0  1  0  0  3  0  0  0  0  0  0
  -33.7250   23.7880  -12.1110 C   0  0  2  0  0  3  0  0  0  0  0  0
  -32.8670   24.8390  -10.0420 C   0  0  0  0  0  2  0  0  0  0  0  0
  -33.6810   23.6490  -10.5800 C   0  0  0  0  0  2  0  0  0  0  0  0
  -30.8620   25.0100  -11.6480 C   0  0  0  0  0  2  0  0  0  0  0  0
  -32.8010   22.8790  -12.8520 C   0  0  0  0  0  0  0  0  0  0  0  0
  -30.6950   23.4860  -11.6090 C   0  0  0  0  0  2  0  0  0  0  0  0
  -31.4850   22.7500  -12.6360 C   0  0  0  0  0  3  0  0  0  0  0  0
  -34.0520   25.8910  -12.3560 H   0  0  0  0  0  0  0  0  0  0  0  0
  -32.8190   25.2930  -13.3320 H   0  0  0  0  0  0  0  0  0  0  0  0
  -33.4630   22.2040  -14.0170 C   0  0  0  0  0  0  0  0  0  0  0  0
  -34.5770   22.5760  -14.3000 O   0  0  0  0  0  0  0  0  0  0  0  0
  -32.7430   21.1320  -14.7470 C   0  0  0  0  0  1  0  0  0  0  0  0
  1 10  1  0  0  0  0
  1  3  1  0  0  0  0
  1  2  1  0  0  0  0
  2  6  1  6  0  0  0
  2  4  1  0  0  0  0
  3  5  1  1  0  0  0
  5  4  1  0  0  0  0
  6  8  1  0  0  0  0
  7  9  2  0  0  0  0
  7  3  1  0  0  0  0
  9  8  1  0  0  0  0
 11  1  1  0  0  0  0
 12  7  1  0  0  0  0
 13 12  2  0  0  0  0
 14 12  1  0  0  0  0
M  END
>  <MODEL>
8

>  <REMARK>
 VINA RESULT:    -5.846      7.725      9.072
 INTER + INTRA:          -6.370
 INTER:                  -6.234
 INTRA:                  -0.135
 UNBOUND:                -0.181
  1 active torsions:
  status: ('A' for Active; 'I' for Inactive)
    1  A    between atoms: C6_8  and  C9_11 

>  <TORSDO>
F 1

$$$$
./AnatoxinaA.pdbqt
 OpenBabel10282519553D

 14 15  0  0  1  0  0  0  0  0999 V2000
   -7.9840   37.3400    9.2120 N   0  0  0  0  0  4  0  0  0  0  0  0
   -7.0460   36.1260    9.0980 C   0  0  1  0  0  3  0  0  0  0  0  0
   -7.6670   37.9500   10.5960 C   0  0  2  0  0  3  0  0  0  0  0  0
   -5.7550   36.6140    9.7710 C   0  0  0  0  0  2  0  0  0  0  0  0
   -6.1720   37.6620   10.8180 C   0  0  0  0  0  2  0  0  0  0  0  0
   -7.6850   34.9110    9.7770 C   0  0  0  0  0  2  0  0  0  0  0  0
   -8.5850   37.2980   11.5780 C   0  0  0  0  0  0  0  0  0  0  0  0
   -7.7200   34.9470   11.3100 C   0  0  0  0  0  2  0  0  0  0  0  0
   -8.6100   35.9950   11.8850 C   0  0  0  0  0  3  0  0  0  0  0  0
   -7.7910   38.0270    8.4590 H   0  0  0  0  0  0  0  0  0  0  0  0
   -8.9880   37.0720    9.1600 H   0  0  0  0  0  0  0  0  0  0  0  0
   -9.6320   38.2360   12.1020 C   0  0  0  0  0  0  0  0  0  0  0  0
  -10.0090   39.1050   11.3510 O   0  0  0  0  0  0  0  0  0  0  0  0
  -10.1400   38.0650   13.4850 C   0  0  0  0  0  1  0  0  0  0  0  0
  1  3  1  0  0  0  0
  2  1  1  0  0  0  0
  2  4  1  1  0  0  0
  2  6  1  0  0  0  0
  3  5  1  1  0  0  0
  3  7  1  0  0  0  0
  4  5  1  0  0  0  0
  6  8  1  0  0  0  0
  7  9  2  0  0  0  0
  7 12  1  0  0  0  0
  8  9  1  0  0  0  0
 10  1  1  0  0  0  0
 11  1  1  0  0  0  0
 12 14  1  0  0  0  0
 13 12  2  0  0  0  0
M  END
>  <MODEL>
9

>  <REMARK>
 VINA RESULT:    -5.801     27.567     28.966
 INTER + INTRA:          -6.321
 INTER:                  -6.143
 INTRA:                  -0.178
 UNBOUND:                -0.181
  1 active torsions:
  status: ('A' for Active; 'I' for Inactive)
    1  A    between atoms: C6_8  and  C9_11 

>  <TORSDO>
F 1

$$$$
./AnatoxinaA.pdbqt
 OpenBabel10282519553D

 14 15  0  0  1  0  0  0  0  0999 V2000
  -19.7540    1.2310   13.2960 N   0  0  0  0  0  4  0  0  0  0  0  0
  -19.2220    0.1240   12.3700 C   0  0  1  0  0  3  0  0  0  0  0  0
  -21.2910    1.0700   13.2520 C   0  0  2  0  0  3  0  0  0  0  0  0
  -20.1730   -1.0510   12.6420 C   0  0  0  0  0  2  0  0  0  0  0  0
  -21.5210   -0.4380   13.0600 C   0  0  0  0  0  2  0  0  0  0  0  0
  -19.2300    0.6120   10.9190 C   0  0  0  0  0  2  0  0  0  0  0  0
  -21.7860    1.9300   12.1360 C   0  0  0  0  0  0  0  0  0  0  0  0
  -20.6120    0.7230   10.2620 C   0  0  0  0  0  2  0  0  0  0  0  0
  -21.4880    1.7810   10.8380 C   0  0  0  0  0  3  0  0  0  0  0  0
  -19.4030    1.1050   14.2630 H   0  0  0  0  0  0  0  0  0  0  0  0
  -19.4850    2.1820   12.9720 H   0  0  0  0  0  0  0  0  0  0  0  0
  -22.5530    3.1250   12.6210 C   0  0  0  0  0  0  0  0  0  0  0  0
  -22.4420    4.1400   11.9770 O   0  0  0  0  0  0  0  0  0  0  0  0
  -23.3870    3.0110   13.8420 C   0  0  0  0  0  1  0  0  0  0  0  0
  1 10  1  0  0  0  0
  2  6  1  6  0  0  0
  2  4  1  0  0  0  0
  2  1  1  0  0  0  0
  3  5  1  6  0  0  0
  3  1  1  0  0  0  0
  4  5  1  0  0  0  0
  7 12  1  0  0  0  0
  7  3  1  0  0  0  0
  8  9  1  0  0  0  0
  8  6  1  0  0  0  0
  9  7  2  0  0  0  0
 11  1  1  0  0  0  0
 12 14  1  0  0  0  0
 13 12  2  0  0  0  0
M  END
>  <MODEL>
10

>  <REMARK>
 VINA RESULT:    -5.701     28.883     30.162
 INTER + INTRA:          -6.216
 INTER:                  -6.081
 INTRA:                  -0.134
 UNBOUND:                -0.181
  1 active torsions:
  status: ('A' for Active; 'I' for Inactive)
    1  A    between atoms: C6_8  and  C9_11 

>  <TORSDO>
F 1

$$$$
./AnatoxinaA.pdbqt
 OpenBabel10282519553D

 14 15  0  0  1  0  0  0  0  0999 V2000
  -24.4840   22.9660   -7.7070 N   0  0  0  0  0  4  0  0  0  0  0  0
  -23.6960   23.5790   -6.5370 C   0  0  1  0  0  3  0  0  0  0  0  0
  -25.6440   23.9560   -7.9570 C   0  0  2  0  0  3  0  0  0  0  0  0
  -23.7610   25.0870   -6.8200 C   0  0  0  0  0  2  0  0  0  0  0  0
  -25.0680   25.3340   -7.5920 C   0  0  0  0  0  2  0  0  0  0  0  0
  -24.3330   23.1640   -5.2080 C   0  0  0  0  0  2  0  0  0  0  0  0
  -26.7880   23.5070   -7.1070 C   0  0  0  0  0  0  0  0  0  0  0  0
  -25.6700   23.8350   -4.8720 C   0  0  0  0  0  2  0  0  0  0  0  0
  -26.7980   23.4520   -5.7680 C   0  0  0  0  0  3  0  0  0  0  0  0
  -23.8880   22.8840   -8.5510 H   0  0  0  0  0  0  0  0  0  0  0  0
  -24.8600   22.0230   -7.4810 H   0  0  0  0  0  0  0  0  0  0  0  0
  -27.9240   22.9480   -7.9120 C   0  0  0  0  0  0  0  0  0  0  0  0
  -27.6550   22.5280   -9.0130 O   0  0  0  0  0  0  0  0  0  0  0  0
  -29.2920   22.9420   -7.3400 C   0  0  0  0  0  1  0  0  0  0  0  0
  1 11  1  0  0  0  0
  1  2  1  0  0  0  0
  2  4  1  6  0  0  0
  2  6  1  0  0  0  0
  3  1  1  0  0  0  0
  3  5  1  1  0  0  0
  3  7  1  0  0  0  0
  5  4  1  0  0  0  0
  6  8  1  0  0  0  0
  7  9  2  0  0  0  0
  9  8  1  0  0  0  0
 10  1  1  0  0  0  0
 12 14  1  0  0  0  0
 12  7  1  0  0  0  0
 13 12  2  0  0  0  0
M  END
>  <MODEL>
11

>  <REMARK>
 VINA RESULT:    -5.694      1.830      2.995
 INTER + INTRA:          -6.208
 INTER:                  -6.044
 INTRA:                  -0.164
 UNBOUND:                -0.181
  1 active torsions:
  status: ('A' for Active; 'I' for Inactive)
    1  A    between atoms: C6_8  and  C9_11 

>  <TORSDO>
F 1

$$$$
./AnatoxinaA.pdbqt
 OpenBabel10282519553D

 14 15  0  0  1  0  0  0  0  0999 V2000
  -21.1580   -0.3350   11.3620 N   0  0  0  0  0  4  0  0  0  0  0  0
  -19.8280   -0.9270   11.8590 C   0  0  1  0  0  3  0  0  0  0  0  0
  -20.7580    0.9740   10.6440 C   0  0  2  0  0  3  0  0  0  0  0  0
  -18.8490   -0.5970   10.7230 C   0  0  0  0  0  2  0  0  0  0  0  0
  -19.3670    0.6880   10.0540 C   0  0  0  0  0  2  0  0  0  0  0  0
  -19.4550   -0.3040   13.2080 C   0  0  0  0  0  2  0  0  0  0  0  0
  -20.7950    2.0600   11.6700 C   0  0  0  0  0  0  0  0  0  0  0  0
  -18.9760    1.1520   13.1590 C   0  0  0  0  0  2  0  0  0  0  0  0
  -20.0240    2.1350   12.7630 C   0  0  0  0  0  3  0  0  0  0  0  0
  -21.6270   -0.9830   10.7020 H   0  0  0  0  0  0  0  0  0  0  0  0
  -21.8160   -0.1300   12.1410 H   0  0  0  0  0  0  0  0  0  0  0  0
  -21.9250    3.0230   11.4530 C   0  0  0  0  0  0  0  0  0  0  0  0
  -22.0830    3.4310   10.3270 O   0  0  0  0  0  0  0  0  0  0  0  0
  -22.7710    3.4270   12.6020 C   0  0  0  0  0  1  0  0  0  0  0  0
  1  2  1  0  0  0  0
  1 11  1  0  0  0  0
  2  4  1  6  0  0  0
  2  6  1  0  0  0  0
  3  5  1  1  0  0  0
  3  1  1  0  0  0  0
  3  7  1  0  0  0  0
  5  4  1  0  0  0  0
  7  9  2  0  0  0  0
  8  6  1  0  0  0  0
  9  8  1  0  0  0  0
 10  1  1  0  0  0  0
 12  7  1  0  0  0  0
 12 14  1  0  0  0  0
 13 12  2  0  0  0  0
M  END
>  <MODEL>
12

>  <REMARK>
 VINA RESULT:    -5.642     28.345     29.924
 INTER + INTRA:          -6.153
 INTER:                  -6.022
 INTRA:                  -0.131
 UNBOUND:                -0.181
  1 active torsions:
  status: ('A' for Active; 'I' for Inactive)
    1  A    between atoms: C6_8  and  C9_11 

>  <TORSDO>
F 1

$$$$
./AnatoxinaA.pdbqt
 OpenBabel10282519553D

 14 15  0  0  1  0  0  0  0  0999 V2000
  -40.1190   32.7160    4.6010 N   0  0  0  0  0  4  0  0  0  0  0  0
  -38.7930   32.6120    3.8290 C   0  0  1  0  0  3  0  0  0  0  0  0
  -41.1210   31.8830    3.7690 C   0  0  2  0  0  3  0  0  0  0  0  0
  -38.7980   31.1660    3.3110 C   0  0  0  0  0  2  0  0  0  0  0  0
  -40.2740   30.7650    3.1400 C   0  0  0  0  0  2  0  0  0  0  0  0
  -38.7520   33.6720    2.7240 C   0  0  0  0  0  2  0  0  0  0  0  0
  -41.7550   32.8190    2.7920 C   0  0  0  0  0  0  0  0  0  0  0  0
  -39.6640   33.4120    1.5180 C   0  0  0  0  0  2  0  0  0  0  0  0
  -41.1220   33.4840    1.8180 C   0  0  0  0  0  3  0  0  0  0  0  0
  -40.0220   32.3200    5.5550 H   0  0  0  0  0  0  0  0  0  0  0  0
  -40.4520   33.6970    4.6870 H   0  0  0  0  0  0  0  0  0  0  0  0
  -43.1980   33.0880    3.1010 C   0  0  0  0  0  0  0  0  0  0  0  0
  -43.6160   32.6710    4.1550 O   0  0  0  0  0  0  0  0  0  0  0  0
  -44.0290   33.8300    2.1210 C   0  0  0  0  0  1  0  0  0  0  0  0
  1 11  1  0  0  0  0
  1 10  1  0  0  0  0
  2  6  1  6  0  0  0
  2  1  1  0  0  0  0
  3  5  1  6  0  0  0
  3  1  1  0  0  0  0
  4  2  1  0  0  0  0
  5  4  1  0  0  0  0
  7 12  1  0  0  0  0
  7  3  1  0  0  0  0
  8  9  1  0  0  0  0
  8  6  1  0  0  0  0
  9  7  2  0  0  0  0
 12 13  2  0  0  0  0
 14 12  1  0  0  0  0
M  END
>  <MODEL>
13

>  <REMARK>
 VINA RESULT:    -5.633     20.225     21.445
 INTER + INTRA:          -6.143
 INTER:                  -6.008
 INTRA:                  -0.135
 UNBOUND:                -0.181
  1 active torsions:
  status: ('A' for Active; 'I' for Inactive)
    1  A    between atoms: C6_8  and  C9_11 

>  <TORSDO>
F 1

$$$$
./AnatoxinaA.pdbqt
 OpenBabel10282519553D

 14 15  0  0  1  0  0  0  0  0999 V2000
  -19.6320    0.4480   13.8880 N   0  0  0  0  0  4  0  0  0  0  0  0
  -20.5020   -0.7200   14.3840 C   0  0  1  0  0  3  0  0  0  0  0  0
  -19.8380    0.4640   12.3560 C   0  0  2  0  0  3  0  0  0  0  0  0
  -21.7420   -0.6450   13.4820 C   0  0  0  0  0  2  0  0  0  0  0  0
  -21.2810   -0.0280   12.1500 C   0  0  0  0  0  2  0  0  0  0  0  0
  -19.7220   -2.0330   14.2680 C   0  0  0  0  0  2  0  0  0  0  0  0
  -18.7840   -0.4150   11.7670 C   0  0  0  0  0  0  0  0  0  0  0  0
  -19.5280   -2.5680   12.8430 C   0  0  0  0  0  2  0  0  0  0  0  0
  -18.6480   -1.7300   11.9820 C   0  0  0  0  0  3  0  0  0  0  0  0
  -19.9450    1.3440   14.3060 H   0  0  0  0  0  0  0  0  0  0  0  0
  -18.6250    0.3160   14.1120 H   0  0  0  0  0  0  0  0  0  0  0  0
  -17.7460    0.3560   11.0060 C   0  0  0  0  0  0  0  0  0  0  0  0
  -17.1160    1.1790   11.6260 O   0  0  0  0  0  0  0  0  0  0  0  0
  -17.5500    0.0850    9.5610 C   0  0  0  0  0  1  0  0  0  0  0  0
  1 11  1  0  0  0  0
  1 10  1  0  0  0  0
  1  2  1  0  0  0  0
  2  4  1  6  0  0  0
  3  5  1  1  0  0  0
  3  1  1  0  0  0  0
  5  4  1  0  0  0  0
  6  2  1  0  0  0  0
  7  9  2  0  0  0  0
  7  3  1  0  0  0  0
  8  6  1  0  0  0  0
  9  8  1  0  0  0  0
 12 13  2  0  0  0  0
 12  7  1  0  0  0  0
 14 12  1  0  0  0  0
M  END
>  <MODEL>
14

>  <REMARK>
 VINA RESULT:    -5.618     30.250     31.878
 INTER + INTRA:          -6.128
 INTER:                  -5.974
 INTRA:                  -0.154
 UNBOUND:                -0.181
  1 active torsions:
  status: ('A' for Active; 'I' for Inactive)
    1  A    between atoms: C6_8  and  C9_11 

>  <TORSDO>
F 1

$$$$
./AnatoxinaA.pdbqt
 OpenBabel10282519553D

 14 15  0  0  1  0  0  0  0  0999 V2000
   -6.6630   35.9730   11.6020 N   0  0  0  0  0  4  0  0  0  0  0  0
   -5.7470   35.6460   10.4100 C   0  0  1  0  0  3  0  0  0  0  0  0
   -8.0620   36.1700   10.9750 C   0  0  2  0  0  3  0  0  0  0  0  0
   -6.6380   34.7780    9.5080 C   0  0  0  0  0  2  0  0  0  0  0  0
   -8.0890   35.2180    9.7680 C   0  0  0  0  0  2  0  0  0  0  0  0
   -5.2680   36.9430    9.7520 C   0  0  0  0  0  2  0  0  0  0  0  0
   -8.1850   37.6200   10.6360 C   0  0  0  0  0  0  0  0  0  0  0  0
   -6.3220   37.7080    8.9420 C   0  0  0  0  0  2  0  0  0  0  0  0
   -7.4270   38.2870    9.7560 C   0  0  0  0  0  3  0  0  0  0  0  0
   -6.6760   35.1900   12.2820 H   0  0  0  0  0  0  0  0  0  0  0  0
   -6.3690   36.8360   12.1020 H   0  0  0  0  0  0  0  0  0  0  0  0
   -9.1660   38.3390   11.5140 C   0  0  0  0  0  0  0  0  0  0  0  0
   -9.6830   39.3290   11.0550 O   0  0  0  0  0  0  0  0  0  0  0  0
   -9.4470   37.8190   12.8750 C   0  0  0  0  0  1  0  0  0  0  0  0
  1 11  1  0  0  0  0
  1 10  1  0  0  0  0
  2  4  1  6  0  0  0
  2  1  1  0  0  0  0
  3  5  1  6  0  0  0
  3  1  1  0  0  0  0
  4  5  1  0  0  0  0
  6  2  1  0  0  0  0
  7  3  1  0  0  0  0
  7 12  1  0  0  0  0
  8  6  1  0  0  0  0
  8  9  1  0  0  0  0
  9  7  2  0  0  0  0
 12 14  1  0  0  0  0
 13 12  2  0  0  0  0
M  END
>  <MODEL>
15

>  <REMARK>
 VINA RESULT:    -5.607     27.615     28.968
 INTER + INTRA:          -6.116
 INTER:                  -6.002
 INTRA:                  -0.114
 UNBOUND:                -0.181
  1 active torsions:
  status: ('A' for Active; 'I' for Inactive)
    1  A    between atoms: C6_8  and  C9_11 

>  <TORSDO>
F 1

$$$$
./AnatoxinaA.pdbqt
 OpenBabel10282519553D

 14 15  0  0  1  0  0  0  0  0999 V2000
  -34.1350   24.0720  -15.1980 N   0  0  0  0  0  4  0  0  0  0  0  0
  -35.3850   23.2630  -15.5810 C   0  0  1  0  0  3  0  0  0  0  0  0
  -33.5230   23.3040  -14.0040 C   0  0  2  0  0  3  0  0  0  0  0  0
  -34.9410   21.8070  -15.3710 C   0  0  0  0  0  2  0  0  0  0  0  0
  -33.8670   21.8290  -14.2710 C   0  0  0  0  0  2  0  0  0  0  0  0
  -36.5670   23.6880  -14.7050 C   0  0  0  0  0  2  0  0  0  0  0  0
  -34.1280   23.8770  -12.7640 C   0  0  0  0  0  0  0  0  0  0  0  0
  -36.5140   23.2240  -13.2440 C   0  0  0  0  0  2  0  0  0  0  0  0
  -35.4260   23.8450  -12.4370 C   0  0  0  0  0  3  0  0  0  0  0  0
  -33.4640   24.1100  -15.9880 H   0  0  0  0  0  0  0  0  0  0  0  0
  -34.3640   25.0470  -14.9170 H   0  0  0  0  0  0  0  0  0  0  0  0
  -33.1440   24.6670  -11.9520 C   0  0  0  0  0  0  0  0  0  0  0  0
  -33.5650   25.6540  -11.3980 O   0  0  0  0  0  0  0  0  0  0  0  0
  -31.7330   24.2150  -11.8720 C   0  0  0  0  0  1  0  0  0  0  0  0
  1 11  1  0  0  0  0
  1  3  1  0  0  0  0
  2  4  1  1  0  0  0
  2  1  1  0  0  0  0
  2  6  1  0  0  0  0
  3  5  1  6  0  0  0
  3  7  1  0  0  0  0
  4  5  1  0  0  0  0
  6  8  1  0  0  0  0
  7  9  2  0  0  0  0
  7 12  1  0  0  0  0
  8  9  1  0  0  0  0
 10  1  1  0  0  0  0
 12 14  1  0  0  0  0
 12 13  2  0  0  0  0
M  END
>  <MODEL>
16

>  <REMARK>
 VINA RESULT:    -5.529      9.718     11.676
 INTER + INTRA:          -6.033
 INTER:                  -5.900
 INTRA:                  -0.134
 UNBOUND:                -0.181
  1 active torsions:
  status: ('A' for Active; 'I' for Inactive)
    1  A    between atoms: C6_8  and  C9_11 

>  <TORSDO>
F 1

$$$$
./AnatoxinaA.pdbqt
 OpenBabel10282519553D

 14 15  0  0  1  0  0  0  0  0999 V2000
  -40.2580   33.8440    3.4900 N   0  0  0  0  0  4  0  0  0  0  0  0
  -40.4330   33.5160    1.9970 C   0  0  1  0  0  3  0  0  0  0  0  0
  -40.6960   32.5570    4.2260 C   0  0  2  0  0  3  0  0  0  0  0  0
  -40.0030   32.0440    1.9070 C   0  0  0  0  0  2  0  0  0  0  0  0
  -40.3080   31.4120    3.2760 C   0  0  0  0  0  2  0  0  0  0  0  0
  -41.8830   33.7710    1.5760 C   0  0  0  0  0  2  0  0  0  0  0  0
  -42.1600   32.6860    4.4920 C   0  0  0  0  0  0  0  0  0  0  0  0
  -42.9130   32.7560    2.0880 C   0  0  0  0  0  2  0  0  0  0  0  0
  -43.1210   32.7760    3.5630 C   0  0  0  0  0  3  0  0  0  0  0  0
  -39.2680   34.0670    3.7050 H   0  0  0  0  0  0  0  0  0  0  0  0
  -40.8470   34.6470    3.7910 H   0  0  0  0  0  0  0  0  0  0  0  0
  -42.4700   32.8740    5.9470 C   0  0  0  0  0  0  0  0  0  0  0  0
  -41.7320   33.5990    6.5710 O   0  0  0  0  0  0  0  0  0  0  0  0
  -43.6340   32.1740    6.5420 C   0  0  0  0  0  1  0  0  0  0  0  0
  1 10  1  0  0  0  0
  1 11  1  0  0  0  0
  1  3  1  0  0  0  0
  2  6  1  1  0  0  0
  2  1  1  0  0  0  0
  3  5  1  6  0  0  0
  3  7  1  0  0  0  0
  4  2  1  0  0  0  0
  4  5  1  0  0  0  0
  6  8  1  0  0  0  0
  7 12  1  0  0  0  0
  8  9  1  0  0  0  0
  9  7  2  0  0  0  0
 12 14  1  0  0  0  0
 12 13  2  0  0  0  0
M  END
>  <MODEL>
17

>  <REMARK>
 VINA RESULT:    -5.469     21.208     22.603
 INTER + INTRA:          -5.970
 INTER:                  -5.788
 INTRA:                  -0.182
 UNBOUND:                -0.181
  1 active torsions:
  status: ('A' for Active; 'I' for Inactive)
    1  A    between atoms: C6_8  and  C9_11 

>  <TORSDO>
F 1

$$$$
./AnatoxinaA.pdbqt
 OpenBabel10282519553D

 14 15  0  0  1  0  0  0  0  0999 V2000
  -31.6550   21.8050  -16.5020 N   0  0  0  0  0  4  0  0  0  0  0  0
  -33.0240   21.9300  -17.1920 C   0  0  1  0  0  3  0  0  0  0  0  0
  -31.9120   20.8830  -15.2880 C   0  0  2  0  0  3  0  0  0  0  0  0
  -33.6270   20.5260  -17.0350 C   0  0  0  0  0  2  0  0  0  0  0  0
  -33.0270   19.9300  -15.7500 C   0  0  0  0  0  2  0  0  0  0  0  0
  -33.8420   23.0400  -16.5250 C   0  0  0  0  0  2  0  0  0  0  0  0
  -32.2760   21.7680  -14.1410 C   0  0  0  0  0  0  0  0  0  0  0  0
  -34.3910   22.7160  -15.1310 C   0  0  0  0  0  2  0  0  0  0  0  0
  -33.3510   22.5660  -14.0750 C   0  0  0  0  0  3  0  0  0  0  0  0
  -30.9570   21.3790  -17.1400 H   0  0  0  0  0  0  0  0  0  0  0  0
  -31.2870   22.7240  -16.1820 H   0  0  0  0  0  0  0  0  0  0  0  0
  -31.2120   21.8150  -13.0850 C   0  0  0  0  0  0  0  0  0  0  0  0
  -30.3680   20.9510  -13.1250 O   0  0  0  0  0  0  0  0  0  0  0  0
  -31.2460   22.8860  -12.0600 C   0  0  0  0  0  1  0  0  0  0  0  0
  1 11  1  0  0  0  0
  1  3  1  0  0  0  0
  2  4  1  1  0  0  0
  2  6  1  0  0  0  0
  2  1  1  0  0  0  0
  3  5  1  6  0  0  0
  3  7  1  0  0  0  0
  4  5  1  0  0  0  0
  6  8  1  0  0  0  0
  7  9  2  0  0  0  0
  7 12  1  0  0  0  0
  8  9  1  0  0  0  0
 10  1  1  0  0  0  0
 12 14  1  0  0  0  0
 13 12  2  0  0  0  0
M  END
>  <MODEL>
18

>  <REMARK>
 VINA RESULT:    -5.326      8.850     11.218
 INTER + INTRA:          -5.819
 INTER:                  -5.679
 INTRA:                  -0.140
 UNBOUND:                -0.181
  1 active torsions:
  status: ('A' for Active; 'I' for Inactive)
    1  A    between atoms: C6_8  and  C9_11 

>  <TORSDO>
F 1

$$$$
./AnatoxinaA.pdbqt
 OpenBabel10282519553D

 14 15  0  0  1  0  0  0  0  0999 V2000
  -34.7020   21.4350  -15.0060 N   0  0  0  0  0  4  0  0  0  0  0  0
  -33.9060   20.6740  -16.0800 C   0  0  1  0  0  3  0  0  0  0  0  0
  -33.9740   22.7930  -14.8710 C   0  0  2  0  0  3  0  0  0  0  0  0
  -33.5190   21.7740  -17.0790 C   0  0  0  0  0  2  0  0  0  0  0  0
  -33.4240   23.0840  -16.2770 C   0  0  0  0  0  2  0  0  0  0  0  0
  -32.7110   19.9660  -15.4360 C   0  0  0  0  0  2  0  0  0  0  0  0
  -32.9350   22.6240  -13.8110 C   0  0  0  0  0  0  0  0  0  0  0  0
  -31.5580   20.8760  -14.9940 C   0  0  0  0  0  2  0  0  0  0  0  0
  -31.8880   21.7890  -13.8640 C   0  0  0  0  0  3  0  0  0  0  0  0
  -35.6840   21.5780  -15.3070 H   0  0  0  0  0  0  0  0  0  0  0  0
  -34.7080   20.9400  -14.0920 H   0  0  0  0  0  0  0  0  0  0  0  0
  -33.2570   23.3830  -12.5580 C   0  0  0  0  0  0  0  0  0  0  0  0
  -34.4230   23.6210  -12.3510 O   0  0  0  0  0  0  0  0  0  0  0  0
  -32.1580   23.8020  -11.6550 C   0  0  0  0  0  1  0  0  0  0  0  0
  1  3  1  0  0  0  0
  1 11  1  0  0  0  0
  2  4  1  6  0  0  0
  2  6  1  0  0  0  0
  2  1  1  0  0  0  0
  3  5  1  6  0  0  0
  3  7  1  0  0  0  0
  4  5  1  0  0  0  0
  6  8  1  0  0  0  0
  7 12  1  0  0  0  0
  8  9  1  0  0  0  0
  9  7  2  0  0  0  0
 10  1  1  0  0  0  0
 12 13  2  0  0  0  0
 12 14  1  0  0  0  0
M  END
>  <MODEL>
19

>  <REMARK>
 VINA RESULT:    -5.293      9.018     11.351
 INTER + INTRA:          -5.784
 INTER:                  -5.614
 INTRA:                  -0.170
 UNBOUND:                -0.181
  1 active torsions:
  status: ('A' for Active; 'I' for Inactive)
    1  A    between atoms: C6_8  and  C9_11 

>  <TORSDO>
F 1

$$$$
./AnatoxinaA.pdbqt
 OpenBabel10282519553D

 14 15  0  0  1  0  0  0  0  0999 V2000
  -42.3080   33.4240    3.8380 N   0  0  0  0  0  4  0  0  0  0  0  0
  -43.4860   32.8440    3.0380 C   0  0  1  0  0  3  0  0  0  0  0  0
  -41.1330   33.4570    2.8340 C   0  0  2  0  0  3  0  0  0  0  0  0
  -43.3000   33.4560    1.6420 C   0  0  0  0  0  2  0  0  0  0  0  0
  -41.7920   33.7060    1.4680 C   0  0  0  0  0  2  0  0  0  0  0  0
  -43.4260   31.3140    3.0630 C   0  0  0  0  0  2  0  0  0  0  0  0
  -40.4190   32.1500    2.9600 C   0  0  0  0  0  0  0  0  0  0  0  0
  -42.3210   30.6770    2.2110 C   0  0  0  0  0  2  0  0  0  0  0  0
  -40.9370   30.9440    2.6920 C   0  0  0  0  0  3  0  0  0  0  0  0
  -42.5260   34.3810    4.1740 H   0  0  0  0  0  0  0  0  0  0  0  0
  -42.0610   32.8390    4.6610 H   0  0  0  0  0  0  0  0  0  0  0  0
  -39.0650   32.2890    3.5890 C   0  0  0  0  0  0  0  0  0  0  0  0
  -38.3620   33.1810    3.1780 O   0  0  0  0  0  0  0  0  0  0  0  0
  -38.6550   31.3440    4.6570 C   0  0  0  0  0  1  0  0  0  0  0  0
  1 10  1  0  0  0  0
  1 11  1  0  0  0  0
  2  4  1  6  0  0  0
  2  6  1  0  0  0  0
  2  1  1  0  0  0  0
  3  5  1  6  0  0  0
  3  7  1  0  0  0  0
  3  1  1  0  0  0  0
  5  4  1  0  0  0  0
  7 12  1  0  0  0  0
  8  9  1  0  0  0  0
  8  6  1  0  0  0  0
  9  7  2  0  0  0  0
 12 14  1  0  0  0  0
 13 12  2  0  0  0  0
M  END
>  <MODEL>
20

>  <REMARK>
 VINA RESULT:    -5.288     20.356     21.715
 INTER + INTRA:          -5.778
 INTER:                  -5.647
 INTRA:                  -0.131
 UNBOUND:                -0.181
  1 active torsions:
  status: ('A' for Active; 'I' for Inactive)
    1  A    between atoms: C6_8  and  C9_11 

>  <TORSDO>
F 1

$$$$
