./Berberina.pdbqt
 OpenBabel10282519553D

 25 29  0  0  1  0  0  0  0  0999 V2000
  -31.7990   24.7640   -9.9410 O   0  0  0  0  0  0  0  0  0  0  0  0
  -30.4460   23.3520  -11.0130 O   0  0  0  0  0  0  0  0  0  0  0  0
  -35.1220   22.5750  -14.9240 N   0  0  0  0  0  0  0  0  0  0  0  0
  -35.7190   23.8270  -14.4170 C   0  0  0  0  0  2  0  0  0  0  0  0
  -35.6890   23.8220  -12.8990 C   0  0  0  0  0  2  0  0  0  0  0  0
  -33.9470   22.1080  -14.3770 C   0  0  1  0  0  3  0  0  0  0  0  0
  -34.2520   23.6930  -12.4650 C   0  0  0  0  0  0  0  0  0  0  0  0
  -33.3850   22.8060  -13.1750 C   0  0  0  0  0  0  0  0  0  0  0  0
  -35.7290   21.9180  -15.9540 C   0  0  0  0  0  3  0  0  0  0  0  0
  -33.3280   20.9740  -14.9320 C   0  0  0  0  0  3  0  0  0  0  0  0
  -35.1540   20.7690  -16.5220 C   0  0  0  0  0  0  0  0  0  0  0  0
  -33.9250   20.3090  -16.0080 C   0  0  0  0  0  0  0  0  0  0  0  0
  -33.7760   24.4160  -11.3510 C   0  0  0  0  0  3  0  0  0  0  0  0
  -32.0540   22.6280  -12.7230 C   0  0  0  0  0  3  0  0  0  0  0  0
  -32.4590   24.2100  -10.9600 C   0  0  0  0  0  0  0  0  0  0  0  0
  -31.6420   23.3540  -11.6090 C   0  0  0  0  0  0  0  0  0  0  0  0
  -35.7870   20.0830  -17.5850 C   0  0  0  0  0  0  0  0  0  0  0  0
  -33.3160   19.1830  -16.5670 C   0  0  0  0  0  3  0  0  0  0  0  0
  -35.1480   18.9510  -18.1600 C   0  0  0  0  0  0  0  0  0  0  0  0
  -30.5110   24.2380   -9.9400 C   0  0  0  0  0  2  0  0  0  0  0  0
  -33.9120   18.5190  -17.6360 C   0  0  0  0  0  3  0  0  0  0  0  0
  -37.0010   20.5500  -17.9990 O   0  0  0  0  0  0  0  0  0  0  0  0
  -38.2520   20.0370  -17.7320 C   0  0  0  0  0  1  0  0  0  0  0  0
  -35.7180   18.3140  -19.2160 O   0  0  0  0  0  0  0  0  0  0  0  0
  -35.8580   16.9500  -19.3760 C   0  0  0  0  0  1  0  0  0  0  0  0
  1 20  1  0  0  0  0
  2 20  1  0  0  0  0
  3  4  1  0  0  0  0
  3  6  1  0  0  0  0
  4  5  1  0  0  0  0
  5  7  1  0  0  0  0
  6 10  1  1  0  0  0
  6  8  1  0  0  0  0
  7 13  1  0  0  0  0
  8 14  1  0  0  0  0
  8  7  2  0  0  0  0
  9  3  1  0  0  0  0
 11 12  1  0  0  0  0
 11  9  2  0  0  0  0
 12 10  2  0  0  0  0
 13 15  2  0  0  0  0
 14 16  2  0  0  0  0
 15  1  1  0  0  0  0
 16  2  1  0  0  0  0
 16 15  1  0  0  0  0
 17 11  1  0  0  0  0
 18 12  1  0  0  0  0
 19 21  1  0  0  0  0
 19 17  2  0  0  0  0
 21 18  2  0  0  0  0
 22 23  1  0  0  0  0
 22 17  1  0  0  0  0
 24 19  1  0  0  0  0
 25 24  1  0  0  0  0
M  END
>  <MODEL>
1

>  <REMARK>
 VINA RESULT:    -8.933      0.000      0.000
 INTER + INTRA:         -10.087
 INTER:                  -9.977
 INTRA:                  -0.110
 UNBOUND:                -0.110
  2 active torsions:
  status: ('A' for Active; 'I' for Inactive)
    1  A    between atoms: O3_3  and  C14_19 
    2  A    between atoms: O4_4  and  C16_21 

>  <TORSDO>
F 2

$$$$
./Berberina.pdbqt
 OpenBabel10282519553D

 25 29  0  0  1  0  0  0  0  0999 V2000
  -28.5340   23.3760  -11.2310 O   0  0  0  0  0  0  0  0  0  0  0  0
  -28.6750   22.0690  -13.0320 O   0  0  0  0  0  0  0  0  0  0  0  0
  -34.5990   23.6960  -13.1760 N   0  0  0  0  0  0  0  0  0  0  0  0
  -34.2780   24.8410  -12.3010 C   0  0  0  0  0  2  0  0  0  0  0  0
  -33.4110   24.3680  -11.1480 C   0  0  0  0  0  2  0  0  0  0  0  0
  -33.6060   22.8110  -13.5340 C   0  0  1  0  0  3  0  0  0  0  0  0
  -32.1590   23.7620  -11.7280 C   0  0  0  0  0  0  0  0  0  0  0  0
  -32.2550   22.9480  -12.8990 C   0  0  0  0  0  0  0  0  0  0  0  0
  -35.8720   23.5550  -13.6460 C   0  0  0  0  0  3  0  0  0  0  0  0
  -33.8940   21.7830  -14.4500 C   0  0  0  0  0  3  0  0  0  0  0  0
  -36.2040   22.5280  -14.5460 C   0  0  0  0  0  0  0  0  0  0  0  0
  -35.1870   21.6460  -14.9620 C   0  0  0  0  0  0  0  0  0  0  0  0
  -30.9100   23.9720  -11.1060 C   0  0  0  0  0  3  0  0  0  0  0  0
  -31.0900   22.3200  -13.4030 C   0  0  0  0  0  3  0  0  0  0  0  0
  -29.8010   23.3380  -11.6510 C   0  0  0  0  0  0  0  0  0  0  0  0
  -29.8870   22.5470  -12.7400 C   0  0  0  0  0  0  0  0  0  0  0  0
  -37.5250   22.3760  -15.0270 C   0  0  0  0  0  0  0  0  0  0  0  0
  -35.4800   20.6290  -15.8740 C   0  0  0  0  0  3  0  0  0  0  0  0
  -37.8070   21.3520  -15.9720 C   0  0  0  0  0  0  0  0  0  0  0  0
  -27.7850   22.5740  -12.0870 C   0  0  0  0  0  2  0  0  0  0  0  0
  -36.7690   20.4900  -16.3820 C   0  0  0  0  0  3  0  0  0  0  0  0
  -38.4720   23.2310  -14.5430 O   0  0  0  0  0  0  0  0  0  0  0  0
  -39.4770   22.9710  -13.6360 C   0  0  0  0  0  1  0  0  0  0  0  0
  -39.0600   21.2280  -16.4830 O   0  0  0  0  0  0  0  0  0  0  0  0
  -39.9200   20.1630  -16.3020 C   0  0  0  0  0  1  0  0  0  0  0  0
  2 16  1  0  0  0  0
  2 20  1  0  0  0  0
  3  4  1  0  0  0  0
  4  5  1  0  0  0  0
  6 10  1  1  0  0  0
  6  3  1  0  0  0  0
  6  8  1  0  0  0  0
  7  5  1  0  0  0  0
  7 13  1  0  0  0  0
  8  7  2  0  0  0  0
  9  3  1  0  0  0  0
 11  9  2  0  0  0  0
 12 11  1  0  0  0  0
 12 10  2  0  0  0  0
 14  8  1  0  0  0  0
 14 16  2  0  0  0  0
 15  1  1  0  0  0  0
 15 13  2  0  0  0  0
 16 15  1  0  0  0  0
 17 11  1  0  0  0  0
 17 22  1  0  0  0  0
 18 12  1  0  0  0  0
 19 17  2  0  0  0  0
 20  1  1  0  0  0  0
 21 19  1  0  0  0  0
 21 18  2  0  0  0  0
 22 23  1  0  0  0  0
 24 25  1  0  0  0  0
 24 19  1  0  0  0  0
M  END
>  <MODEL>
2

>  <REMARK>
 VINA RESULT:    -8.916      2.219      3.324
 INTER + INTRA:         -10.068
 INTER:                  -9.936
 INTRA:                  -0.132
 UNBOUND:                -0.110
  2 active torsions:
  status: ('A' for Active; 'I' for Inactive)
    1  A    between atoms: O3_3  and  C14_19 
    2  A    between atoms: O4_4  and  C16_21 

>  <TORSDO>
F 2

$$$$
./Berberina.pdbqt
 OpenBabel10282519553D

 25 29  0  0  1  0  0  0  0  0999 V2000
  -37.9010   20.3540  -18.0350 O   0  0  0  0  0  0  0  0  0  0  0  0
  -38.4010   22.1330  -16.7870 O   0  0  0  0  0  0  0  0  0  0  0  0
  -32.6680   21.6520  -14.6290 N   0  0  0  0  0  0  0  0  0  0  0  0
  -32.3280   20.8130  -15.7950 C   0  0  0  0  0  2  0  0  0  0  0  0
  -33.4020   19.7580  -15.9890 C   0  0  0  0  0  2  0  0  0  0  0  0
  -33.9560   22.1140  -14.4720 C   0  0  1  0  0  3  0  0  0  0  0  0
  -34.7160   20.4680  -16.1970 C   0  0  0  0  0  0  0  0  0  0  0  0
  -35.0170   21.6240  -15.4120 C   0  0  0  0  0  0  0  0  0  0  0  0
  -31.6870   21.9870  -13.7420 C   0  0  0  0  0  3  0  0  0  0  0  0
  -34.2510   22.9970  -13.4180 C   0  0  0  0  0  3  0  0  0  0  0  0
  -31.9470   22.8490  -12.6630 C   0  0  0  0  0  0  0  0  0  0  0  0
  -33.2470   23.3710  -12.5190 C   0  0  0  0  0  0  0  0  0  0  0  0
  -35.6500   19.9790  -17.1350 C   0  0  0  0  0  3  0  0  0  0  0  0
  -36.2800   22.2490  -15.5550 C   0  0  0  0  0  3  0  0  0  0  0  0
  -36.8680   20.6390  -17.2380 C   0  0  0  0  0  0  0  0  0  0  0  0
  -37.1700   21.7150  -16.4830 C   0  0  0  0  0  0  0  0  0  0  0  0
  -30.9320   23.1890  -11.7380 C   0  0  0  0  0  0  0  0  0  0  0  0
  -33.5310   24.2500  -11.4710 C   0  0  0  0  0  3  0  0  0  0  0  0
  -31.2270   24.1010  -10.6880 C   0  0  0  0  0  0  0  0  0  0  0  0
  -38.9010   21.2860  -17.7740 C   0  0  0  0  0  2  0  0  0  0  0  0
  -32.5330   24.6200  -10.5740 C   0  0  0  0  0  3  0  0  0  0  0  0
  -29.7100   22.6060  -11.9050 O   0  0  0  0  0  0  0  0  0  0  0  0
  -28.5160   23.2040  -12.2500 C   0  0  0  0  0  1  0  0  0  0  0  0
  -30.2480   24.4790   -9.8240 O   0  0  0  0  0  0  0  0  0  0  0  0
  -29.8760   23.8240   -8.6670 C   0  0  0  0  0  1  0  0  0  0  0  0
  1 20  1  0  0  0  0
  1 15  1  0  0  0  0
  2 16  1  0  0  0  0
  3  6  1  0  0  0  0
  3  9  1  0  0  0  0
  4  3  1  0  0  0  0
  5  4  1  0  0  0  0
  6 10  1  1  0  0  0
  7  5  1  0  0  0  0
  7  8  1  0  0  0  0
  8  6  1  0  0  0  0
  9 11  2  0  0  0  0
 10 12  2  0  0  0  0
 11 12  1  0  0  0  0
 11 17  1  0  0  0  0
 12 18  1  0  0  0  0
 13  7  2  0  0  0  0
 14  8  2  0  0  0  0
 15 13  1  0  0  0  0
 15 16  2  0  0  0  0
 16 14  1  0  0  0  0
 17 19  2  0  0  0  0
 18 21  2  0  0  0  0
 19 21  1  0  0  0  0
 19 24  1  0  0  0  0
 20  2  1  0  0  0  0
 22 17  1  0  0  0  0
 23 22  1  0  0  0  0
 24 25  1  0  0  0  0
M  END
>  <MODEL>
3

>  <REMARK>
 VINA RESULT:    -8.831      1.558      8.088
 INTER + INTRA:          -9.974
 INTER:                  -9.910
 INTRA:                  -0.064
 UNBOUND:                -0.110
  2 active torsions:
  status: ('A' for Active; 'I' for Inactive)
    1  A    between atoms: O3_3  and  C14_19 
    2  A    between atoms: O4_4  and  C16_21 

>  <TORSDO>
F 2

$$$$
./Berberina.pdbqt
 OpenBabel10282519553D

 25 29  0  0  1  0  0  0  0  0999 V2000
  -35.6460   16.9440  -19.8590 O   0  0  0  0  0  0  0  0  0  0  0  0
  -33.7720   16.4210  -18.7680 O   0  0  0  0  0  0  0  0  0  0  0  0
  -34.9430   21.3760  -15.3280 N   0  0  0  0  0  0  0  0  0  0  0  0
  -36.3400   21.3420  -15.8020 C   0  0  0  0  0  2  0  0  0  0  0  0
  -36.3580   21.1590  -17.3090 C   0  0  0  0  0  2  0  0  0  0  0  0
  -34.0380   20.4510  -15.8010 C   0  0  1  0  0  3  0  0  0  0  0  0
  -35.6470   19.8690  -17.6270 C   0  0  0  0  0  0  0  0  0  0  0  0
  -34.4620   19.5280  -16.9040 C   0  0  0  0  0  0  0  0  0  0  0  0
  -34.5780   22.3050  -14.3980 C   0  0  0  0  0  3  0  0  0  0  0  0
  -32.7360   20.4220  -15.2700 C   0  0  0  0  0  3  0  0  0  0  0  0
  -33.2810   22.3220  -13.8580 C   0  0  0  0  0  0  0  0  0  0  0  0
  -32.3600   21.3500  -14.2940 C   0  0  0  0  0  0  0  0  0  0  0  0
  -36.1290   19.0210  -18.6470 C   0  0  0  0  0  3  0  0  0  0  0  0
  -33.7530   18.3520  -17.2510 C   0  0  0  0  0  3  0  0  0  0  0  0
  -35.3970   17.8770  -18.9370 C   0  0  0  0  0  0  0  0  0  0  0  0
  -34.2630   17.5620  -18.2770 C   0  0  0  0  0  0  0  0  0  0  0  0
  -32.9010   23.2910  -12.9000 C   0  0  0  0  0  0  0  0  0  0  0  0
  -31.0690   21.3260  -13.7590 C   0  0  0  0  0  3  0  0  0  0  0  0
  -31.5920   23.2440  -12.3460 C   0  0  0  0  0  0  0  0  0  0  0  0
  -34.6280   15.9980  -19.7830 C   0  0  0  0  0  2  0  0  0  0  0  0
  -30.6930   22.2520  -12.7900 C   0  0  0  0  0  3  0  0  0  0  0  0
  -33.8250   24.2360  -12.5620 O   0  0  0  0  0  0  0  0  0  0  0  0
  -34.7280   24.2160  -11.5200 C   0  0  0  0  0  1  0  0  0  0  0  0
  -31.2300   24.1340  -11.3850 O   0  0  0  0  0  0  0  0  0  0  0  0
  -30.7330   23.8340  -10.1330 C   0  0  0  0  0  1  0  0  0  0  0  0
  1 20  1  0  0  0  0
  1 15  1  0  0  0  0
  2 16  1  0  0  0  0
  3  9  1  0  0  0  0
  4  3  1  0  0  0  0
  5  4  1  0  0  0  0
  6  3  1  0  0  0  0
  6 10  1  6  0  0  0
  7  5  1  0  0  0  0
  7  8  1  0  0  0  0
  8  6  1  0  0  0  0
  9 11  2  0  0  0  0
 10 12  2  0  0  0  0
 11 17  1  0  0  0  0
 12 11  1  0  0  0  0
 12 18  1  0  0  0  0
 13  7  2  0  0  0  0
 14  8  2  0  0  0  0
 15 13  1  0  0  0  0
 15 16  2  0  0  0  0
 16 14  1  0  0  0  0
 17 22  1  0  0  0  0
 17 19  2  0  0  0  0
 18 21  2  0  0  0  0
 19 24  1  0  0  0  0
 20  2  1  0  0  0  0
 21 19  1  0  0  0  0
 22 23  1  0  0  0  0
 24 25  1  0  0  0  0
M  END
>  <MODEL>
4

>  <REMARK>
 VINA RESULT:    -8.465      1.470      7.756
 INTER + INTRA:          -9.565
 INTER:                  -9.504
 INTRA:                  -0.061
 UNBOUND:                -0.110
  2 active torsions:
  status: ('A' for Active; 'I' for Inactive)
    1  A    between atoms: O3_3  and  C14_19 
    2  A    between atoms: O4_4  and  C16_21 

>  <TORSDO>
F 2

$$$$
./Berberina.pdbqt
 OpenBabel10282519553D

 25 29  0  0  1  0  0  0  0  0999 V2000
  -38.7040   20.4310  -17.5900 O   0  0  0  0  0  0  0  0  0  0  0  0
  -36.9500   19.0550  -17.6390 O   0  0  0  0  0  0  0  0  0  0  0  0
  -34.4230   22.8830  -13.5500 N   0  0  0  0  0  0  0  0  0  0  0  0
  -35.7670   23.4260  -13.2680 C   0  0  0  0  0  2  0  0  0  0  0  0
  -36.4810   23.7100  -14.5770 C   0  0  0  0  0  2  0  0  0  0  0  0
  -34.2680   21.9060  -14.5080 C   0  0  1  0  0  3  0  0  0  0  0  0
  -36.5700   22.4170  -15.3460 C   0  0  0  0  0  0  0  0  0  0  0  0
  -35.4510   21.5280  -15.3490 C   0  0  0  0  0  0  0  0  0  0  0  0
  -33.3580   23.3350  -12.8270 C   0  0  0  0  0  3  0  0  0  0  0  0
  -33.0050   21.3180  -14.7000 C   0  0  0  0  0  3  0  0  0  0  0  0
  -32.0750   22.7890  -13.0040 C   0  0  0  0  0  0  0  0  0  0  0  0
  -31.9110   21.7520  -13.9440 C   0  0  0  0  0  0  0  0  0  0  0  0
  -37.7340   22.1010  -16.0790 C   0  0  0  0  0  3  0  0  0  0  0  0
  -35.5060   20.3470  -16.1300 C   0  0  0  0  0  3  0  0  0  0  0  0
  -37.7340   20.9250  -16.8170 C   0  0  0  0  0  0  0  0  0  0  0  0
  -36.6720   20.0930  -16.8460 C   0  0  0  0  0  0  0  0  0  0  0  0
  -30.9690   23.2630  -12.2610 C   0  0  0  0  0  0  0  0  0  0  0  0
  -30.6540   21.1720  -14.1270 C   0  0  0  0  0  3  0  0  0  0  0  0
  -29.6990   22.6510  -12.4390 C   0  0  0  0  0  0  0  0  0  0  0  0
  -38.2390   19.2380  -18.1350 C   0  0  0  0  0  2  0  0  0  0  0  0
  -29.5640   21.6060  -13.3770 C   0  0  0  0  0  3  0  0  0  0  0  0
  -31.1870   24.3050  -11.4070 O   0  0  0  0  0  0  0  0  0  0  0  0
  -30.7570   25.6100  -11.5210 C   0  0  0  0  0  1  0  0  0  0  0  0
  -28.6390   23.0600  -11.6930 O   0  0  0  0  0  0  0  0  0  0  0  0
  -27.3120   23.0520  -12.0770 C   0  0  0  0  0  1  0  0  0  0  0  0
  1 15  1  0  0  0  0
  2 16  1  0  0  0  0
  3  4  1  0  0  0  0
  3  9  1  0  0  0  0
  5  4  1  0  0  0  0
  6 10  1  6  0  0  0
  6  3  1  0  0  0  0
  7  5  1  0  0  0  0
  8  7  1  0  0  0  0
  8  6  1  0  0  0  0
 10 12  2  0  0  0  0
 11  9  2  0  0  0  0
 11 17  1  0  0  0  0
 12 11  1  0  0  0  0
 13  7  2  0  0  0  0
 14  8  2  0  0  0  0
 15 13  1  0  0  0  0
 16 15  2  0  0  0  0
 16 14  1  0  0  0  0
 17 22  1  0  0  0  0
 18 12  1  0  0  0  0
 18 21  2  0  0  0  0
 19 17  2  0  0  0  0
 19 24  1  0  0  0  0
 20  2  1  0  0  0  0
 20  1  1  0  0  0  0
 21 19  1  0  0  0  0
 23 22  1  0  0  0  0
 25 24  1  0  0  0  0
M  END
>  <MODEL>
5

>  <REMARK>
 VINA RESULT:    -8.337      1.653      7.453
 INTER + INTRA:          -9.422
 INTER:                  -9.336
 INTRA:                  -0.086
 UNBOUND:                -0.110
  2 active torsions:
  status: ('A' for Active; 'I' for Inactive)
    1  A    between atoms: O3_3  and  C14_19 
    2  A    between atoms: O4_4  and  C16_21 

>  <TORSDO>
F 2

$$$$
./Berberina.pdbqt
 OpenBabel10282519553D

 25 29  0  0  1  0  0  0  0  0999 V2000
  -30.1250   23.4390  -11.0860 O   0  0  0  0  0  0  0  0  0  0  0  0
  -32.1990   24.1590  -10.6920 O   0  0  0  0  0  0  0  0  0  0  0  0
  -33.8150   20.7050  -15.5100 N   0  0  0  0  0  0  0  0  0  0  0  0
  -32.5410   19.9710  -15.3770 C   0  0  0  0  0  2  0  0  0  0  0  0
  -31.4020   20.9610  -15.2090 C   0  0  0  0  0  2  0  0  0  0  0  0
  -34.0910   21.7530  -14.6610 C   0  0  1  0  0  3  0  0  0  0  0  0
  -31.6840   21.7850  -13.9790 C   0  0  0  0  0  0  0  0  0  0  0  0
  -33.0210   22.2190  -13.7200 C   0  0  0  0  0  0  0  0  0  0  0  0
  -34.7160   20.3070  -16.4540 C   0  0  0  0  0  3  0  0  0  0  0  0
  -35.3480   22.3810  -14.7230 C   0  0  0  0  0  3  0  0  0  0  0  0
  -35.9740   20.9240  -16.5620 C   0  0  0  0  0  0  0  0  0  0  0  0
  -36.2920   21.9630  -15.6650 C   0  0  0  0  0  0  0  0  0  0  0  0
  -30.6340   22.1490  -13.1090 C   0  0  0  0  0  3  0  0  0  0  0  0
  -33.2740   23.0540  -12.6040 C   0  0  0  0  0  3  0  0  0  0  0  0
  -30.9440   22.9600  -12.0250 C   0  0  0  0  0  0  0  0  0  0  0  0
  -32.1990   23.3960  -11.7880 C   0  0  0  0  0  0  0  0  0  0  0  0
  -36.9060   20.5170  -17.5460 C   0  0  0  0  0  0  0  0  0  0  0  0
  -37.5430   22.5800  -15.7330 C   0  0  0  0  0  3  0  0  0  0  0  0
  -38.1840   21.1380  -17.5910 C   0  0  0  0  0  0  0  0  0  0  0  0
  -30.8900   24.2120  -10.2170 C   0  0  0  0  0  2  0  0  0  0  0  0
  -38.4820   22.1660  -16.6740 C   0  0  0  0  0  3  0  0  0  0  0  0
  -36.5140   19.5420  -18.4170 O   0  0  0  0  0  0  0  0  0  0  0  0
  -36.8190   18.1980  -18.3900 C   0  0  0  0  0  1  0  0  0  0  0  0
  -39.1090   20.7200  -18.4950 O   0  0  0  0  0  0  0  0  0  0  0  0
  -40.3110   20.1010  -18.2160 C   0  0  0  0  0  1  0  0  0  0  0  0
  1 20  1  0  0  0  0
  2 20  1  0  0  0  0
  3  4  1  0  0  0  0
  3  6  1  0  0  0  0
  4  5  1  0  0  0  0
  5  7  1  0  0  0  0
  6 10  1  6  0  0  0
  6  8  1  0  0  0  0
  7  8  2  0  0  0  0
  7 13  1  0  0  0  0
  8 14  1  0  0  0  0
  9  3  1  0  0  0  0
 11  9  2  0  0  0  0
 11 12  1  0  0  0  0
 12 10  2  0  0  0  0
 13 15  2  0  0  0  0
 14 16  2  0  0  0  0
 15 16  1  0  0  0  0
 15  1  1  0  0  0  0
 16  2  1  0  0  0  0
 17 11  1  0  0  0  0
 18 12  1  0  0  0  0
 19 17  2  0  0  0  0
 19 21  1  0  0  0  0
 21 18  2  0  0  0  0
 22 23  1  0  0  0  0
 22 17  1  0  0  0  0
 24 25  1  0  0  0  0
 24 19  1  0  0  0  0
M  END
>  <MODEL>
6

>  <REMARK>
 VINA RESULT:    -8.025      1.408      3.275
 INTER + INTRA:          -9.073
 INTER:                  -8.967
 INTRA:                  -0.106
 UNBOUND:                -0.110
  2 active torsions:
  status: ('A' for Active; 'I' for Inactive)
    1  A    between atoms: O3_3  and  C14_19 
    2  A    between atoms: O4_4  and  C16_21 

>  <TORSDO>
F 2

$$$$
./Berberina.pdbqt
 OpenBabel10282519553D

 25 29  0  0  1  0  0  0  0  0999 V2000
  -31.2810   24.5980  -10.5330 O   0  0  0  0  0  0  0  0  0  0  0  0
  -33.4770   24.7730  -10.8750 O   0  0  0  0  0  0  0  0  0  0  0  0
  -32.6940   20.3950  -15.1150 N   0  0  0  0  0  0  0  0  0  0  0  0
  -31.3990   20.0600  -14.4920 C   0  0  0  0  0  2  0  0  0  0  0  0
  -30.6180   21.3360  -14.2330 C   0  0  0  0  0  2  0  0  0  0  0  0
  -33.4480   21.4330  -14.6120 C   0  0  1  0  0  3  0  0  0  0  0  0
  -31.4460   22.2100  -13.3260 C   0  0  0  0  0  0  0  0  0  0  0  0
  -32.8570   22.2940  -13.5360 C   0  0  0  0  0  0  0  0  0  0  0  0
  -33.1420   19.6440  -16.1630 C   0  0  0  0  0  3  0  0  0  0  0  0
  -34.7260   21.6810  -15.1410 C   0  0  0  0  0  3  0  0  0  0  0  0
  -34.4060   19.8740  -16.7340 C   0  0  0  0  0  0  0  0  0  0  0  0
  -35.2090   20.8990  -16.1950 C   0  0  0  0  0  0  0  0  0  0  0  0
  -30.8300   22.9580  -12.3010 C   0  0  0  0  0  3  0  0  0  0  0  0
  -33.6250   23.1700  -12.7310 C   0  0  0  0  0  3  0  0  0  0  0  0
  -31.6360   23.7930  -11.5370 C   0  0  0  0  0  0  0  0  0  0  0  0
  -32.9650   23.8980  -11.7450 C   0  0  0  0  0  0  0  0  0  0  0  0
  -34.8670   19.1010  -17.8250 C   0  0  0  0  0  0  0  0  0  0  0  0
  -36.4790   21.1370  -16.7260 C   0  0  0  0  0  3  0  0  0  0  0  0
  -36.1690   19.3380  -18.3430 C   0  0  0  0  0  0  0  0  0  0  0  0
  -32.4300   25.2430  -10.0860 C   0  0  0  0  0  2  0  0  0  0  0  0
  -36.9590   20.3610  -17.7770 C   0  0  0  0  0  3  0  0  0  0  0  0
  -34.0170   18.1620  -18.3320 O   0  0  0  0  0  0  0  0  0  0  0  0
  -33.2050   18.2520  -19.4430 C   0  0  0  0  0  1  0  0  0  0  0  0
  -36.6460   18.5680  -19.3560 O   0  0  0  0  0  0  0  0  0  0  0  0
  -37.9700   18.4120  -19.7160 C   0  0  0  0  0  1  0  0  0  0  0  0
  1 20  1  0  0  0  0
  2 20  1  0  0  0  0
  3  6  1  0  0  0  0
  3  4  1  0  0  0  0
  4  5  1  0  0  0  0
  5  7  1  0  0  0  0
  6 10  1  6  0  0  0
  6  8  1  0  0  0  0
  7 13  1  0  0  0  0
  8  7  2  0  0  0  0
  8 14  1  0  0  0  0
  9  3  1  0  0  0  0
 11 12  1  0  0  0  0
 11  9  2  0  0  0  0
 12 10  2  0  0  0  0
 13 15  2  0  0  0  0
 14 16  2  0  0  0  0
 15  1  1  0  0  0  0
 16 15  1  0  0  0  0
 16  2  1  0  0  0  0
 17 11  1  0  0  0  0
 18 12  1  0  0  0  0
 19 17  2  0  0  0  0
 19 21  1  0  0  0  0
 21 18  2  0  0  0  0
 22 17  1  0  0  0  0
 23 22  1  0  0  0  0
 24 19  1  0  0  0  0
 25 24  1  0  0  0  0
M  END
>  <MODEL>
7

>  <REMARK>
 VINA RESULT:    -7.887      1.484      3.001
 INTER + INTRA:          -8.919
 INTER:                  -8.832
 INTRA:                  -0.087
 UNBOUND:                -0.110
  2 active torsions:
  status: ('A' for Active; 'I' for Inactive)
    1  A    between atoms: O3_3  and  C14_19 
    2  A    between atoms: O4_4  and  C16_21 

>  <TORSDO>
F 2

$$$$
./Berberina.pdbqt
 OpenBabel10282519553D

 25 29  0  0  1  0  0  0  0  0999 V2000
   -1.3420   30.3690    6.4220 O   0  0  0  0  0  0  0  0  0  0  0  0
   -3.2840   29.7520    7.3270 O   0  0  0  0  0  0  0  0  0  0  0  0
   -4.4250   35.7680    7.8370 N   0  0  0  0  0  0  0  0  0  0  0  0
   -3.3660   36.0260    6.8410 C   0  0  0  0  0  2  0  0  0  0  0  0
   -2.1290   35.2220    7.1990 C   0  0  0  0  0  2  0  0  0  0  0  0
   -4.6820   34.4770    8.2420 C   0  0  1  0  0  3  0  0  0  0  0  0
   -2.5140   33.7640    7.2150 C   0  0  0  0  0  0  0  0  0  0  0  0
   -3.7730   33.3810    7.7730 C   0  0  0  0  0  0  0  0  0  0  0  0
   -5.1590   36.8160    8.3140 C   0  0  0  0  0  3  0  0  0  0  0  0
   -5.7600   34.2260    9.1100 C   0  0  0  0  0  3  0  0  0  0  0  0
   -6.2300   36.6080    9.1990 C   0  0  0  0  0  0  0  0  0  0  0  0
   -6.5380   35.2870    9.5820 C   0  0  0  0  0  0  0  0  0  0  0  0
   -1.6290   32.7870    6.7130 C   0  0  0  0  0  3  0  0  0  0  0  0
   -4.1050   32.0060    7.8540 C   0  0  0  0  0  3  0  0  0  0  0  0
   -2.0120   31.4560    6.8110 C   0  0  0  0  0  0  0  0  0  0  0  0
   -3.1870   31.0840    7.3590 C   0  0  0  0  0  0  0  0  0  0  0  0
   -6.9850   37.6940    9.7010 C   0  0  0  0  0  0  0  0  0  0  0  0
   -7.6110   35.0460   10.4430 C   0  0  0  0  0  3  0  0  0  0  0  0
   -8.0880   37.4350   10.5590 C   0  0  0  0  0  0  0  0  0  0  0  0
   -2.1220   29.2600    6.7380 C   0  0  0  0  0  2  0  0  0  0  0  0
   -8.3840   36.1030   10.9160 C   0  0  0  0  0  3  0  0  0  0  0  0
   -6.5990   38.9500    9.3320 O   0  0  0  0  0  0  0  0  0  0  0  0
   -7.1730   39.7810    8.3930 C   0  0  0  0  0  1  0  0  0  0  0  0
   -8.8560   38.4640   11.0050 O   0  0  0  0  0  0  0  0  0  0  0  0
   -9.6950   38.4480   12.1010 C   0  0  0  0  0  1  0  0  0  0  0  0
  1 20  1  0  0  0  0
  1 15  1  0  0  0  0
  2 16  1  0  0  0  0
  3  6  1  0  0  0  0
  3  9  1  0  0  0  0
  4  5  1  0  0  0  0
  4  3  1  0  0  0  0
  5  7  1  0  0  0  0
  6 10  1  1  0  0  0
  7  8  1  0  0  0  0
  8 14  2  0  0  0  0
  8  6  1  0  0  0  0
  9 11  2  0  0  0  0
 10 12  2  0  0  0  0
 11 12  1  0  0  0  0
 11 17  1  0  0  0  0
 12 18  1  0  0  0  0
 13 15  1  0  0  0  0
 13  7  2  0  0  0  0
 15 16  2  0  0  0  0
 16 14  1  0  0  0  0
 17 19  2  0  0  0  0
 18 21  2  0  0  0  0
 19 21  1  0  0  0  0
 19 24  1  0  0  0  0
 20  2  1  0  0  0  0
 22 17  1  0  0  0  0
 23 22  1  0  0  0  0
 24 25  1  0  0  0  0
M  END
>  <MODEL>
8

>  <REMARK>
 VINA RESULT:    -7.660     39.067     40.074
 INTER + INTRA:          -8.665
 INTER:                  -8.598
 INTRA:                  -0.067
 UNBOUND:                -0.110
  2 active torsions:
  status: ('A' for Active; 'I' for Inactive)
    1  A    between atoms: O3_3  and  C14_19 
    2  A    between atoms: O4_4  and  C16_21 

>  <TORSDO>
F 2

$$$$
./Berberina.pdbqt
 OpenBabel10282519553D

 25 29  0  0  1  0  0  0  0  0999 V2000
  -39.4670   21.3490  -18.5670 O   0  0  0  0  0  0  0  0  0  0  0  0
  -39.4750   23.1150  -17.2050 O   0  0  0  0  0  0  0  0  0  0  0  0
  -33.8530   21.2740  -15.5420 N   0  0  0  0  0  0  0  0  0  0  0  0
  -33.7880   20.4540  -16.7680 C   0  0  0  0  0  2  0  0  0  0  0  0
  -35.0790   19.6700  -16.9200 C   0  0  0  0  0  2  0  0  0  0  0  0
  -34.9940   21.9940  -15.2600 C   0  0  1  0  0  3  0  0  0  0  0  0
  -36.2150   20.6590  -16.9890 C   0  0  0  0  0  0  0  0  0  0  0  0
  -36.1990   21.8030  -16.1330 C   0  0  0  0  0  0  0  0  0  0  0  0
  -32.7640   21.3340  -14.7230 C   0  0  0  0  0  3  0  0  0  0  0  0
  -35.0130   22.8530  -14.1480 C   0  0  0  0  0  3  0  0  0  0  0  0
  -32.7520   22.1650  -13.5890 C   0  0  0  0  0  0  0  0  0  0  0  0
  -33.8920   22.9460  -13.3180 C   0  0  0  0  0  0  0  0  0  0  0  0
  -37.2970   20.4420  -17.8690 C   0  0  0  0  0  3  0  0  0  0  0  0
  -37.3000   22.6930  -16.1450 C   0  0  0  0  0  3  0  0  0  0  0  0
  -38.3440   21.3550  -17.8450 C   0  0  0  0  0  0  0  0  0  0  0  0
  -38.3480   22.4220  -17.0200 C   0  0  0  0  0  0  0  0  0  0  0  0
  -31.6250   22.2200  -12.7350 C   0  0  0  0  0  0  0  0  0  0  0  0
  -33.9020   23.7990  -12.2120 C   0  0  0  0  0  3  0  0  0  0  0  0
  -31.6380   23.1080  -11.6260 C   0  0  0  0  0  0  0  0  0  0  0  0
  -40.2160   22.4570  -18.1840 C   0  0  0  0  0  2  0  0  0  0  0  0
  -32.7870   23.8890  -11.3830 C   0  0  0  0  0  3  0  0  0  0  0  0
  -30.5760   21.3980  -13.0260 O   0  0  0  0  0  0  0  0  0  0  0  0
  -29.3310   21.7370  -13.5130 C   0  0  0  0  0  1  0  0  0  0  0  0
  -30.5430   23.2120  -10.8280 O   0  0  0  0  0  0  0  0  0  0  0  0
  -30.3830   24.0710   -9.7590 C   0  0  0  0  0  1  0  0  0  0  0  0
  1 20  1  0  0  0  0
  1 15  1  0  0  0  0
  2 16  1  0  0  0  0
  3  6  1  0  0  0  0
  3  9  1  0  0  0  0
  4  3  1  0  0  0  0
  5  4  1  0  0  0  0
  6 10  1  1  0  0  0
  7  5  1  0  0  0  0
  7  8  1  0  0  0  0
  8  6  1  0  0  0  0
  9 11  2  0  0  0  0
 10 12  2  0  0  0  0
 11 12  1  0  0  0  0
 11 17  1  0  0  0  0
 12 18  1  0  0  0  0
 13 15  1  0  0  0  0
 13  7  2  0  0  0  0
 14  8  2  0  0  0  0
 15 16  2  0  0  0  0
 16 14  1  0  0  0  0
 17 19  2  0  0  0  0
 18 21  2  0  0  0  0
 19 21  1  0  0  0  0
 19 24  1  0  0  0  0
 20  2  1  0  0  0  0
 22 17  1  0  0  0  0
 23 22  1  0  0  0  0
 24 25  1  0  0  0  0
M  END
>  <MODEL>
9

>  <REMARK>
 VINA RESULT:    -7.570      1.719      7.883
 INTER + INTRA:          -8.566
 INTER:                  -8.510
 INTRA:                  -0.055
 UNBOUND:                -0.110
  2 active torsions:
  status: ('A' for Active; 'I' for Inactive)
    1  A    between atoms: O3_3  and  C14_19 
    2  A    between atoms: O4_4  and  C16_21 

>  <TORSDO>
F 2

$$$$
./Berberina.pdbqt
 OpenBabel10282519553D

 25 29  0  0  1  0  0  0  0  0999 V2000
  -33.1500   39.4230   10.0600 O   0  0  0  0  0  0  0  0  0  0  0  0
  -34.8300   39.3710    8.5940 O   0  0  0  0  0  0  0  0  0  0  0  0
  -38.1540   37.0130   13.1940 N   0  0  0  0  0  0  0  0  0  0  0  0
  -37.1440   37.5170   14.1460 C   0  0  0  0  0  2  0  0  0  0  0  0
  -35.7560   37.1590   13.6460 C   0  0  0  0  0  2  0  0  0  0  0  0
  -37.9690   37.1970   11.8410 C   0  0  1  0  0  3  0  0  0  0  0  0
  -35.5780   37.7850   12.2860 C   0  0  0  0  0  0  0  0  0  0  0  0
  -36.6690   37.7720   11.3630 C   0  0  0  0  0  0  0  0  0  0  0  0
  -39.2750   36.4020   13.6740 C   0  0  0  0  0  3  0  0  0  0  0  0
  -38.9810   36.8090   10.9450 C   0  0  0  0  0  3  0  0  0  0  0  0
  -40.3000   35.9810   12.8100 C   0  0  0  0  0  0  0  0  0  0  0  0
  -40.1490   36.2100   11.4280 C   0  0  0  0  0  0  0  0  0  0  0  0
  -34.3390   38.3520   11.9190 C   0  0  0  0  0  3  0  0  0  0  0  0
  -36.4810   38.2950   10.0610 C   0  0  0  0  0  3  0  0  0  0  0  0
  -34.2170   38.8590   10.6320 C   0  0  0  0  0  0  0  0  0  0  0  0
  -35.2330   38.8260    9.7450 C   0  0  0  0  0  0  0  0  0  0  0  0
  -41.4590   35.3400   13.3070 C   0  0  0  0  0  0  0  0  0  0  0  0
  -41.1600   35.8230   10.5450 C   0  0  0  0  0  3  0  0  0  0  0  0
  -42.4910   34.9710   12.4020 C   0  0  0  0  0  0  0  0  0  0  0  0
  -33.5020   39.7610    8.7570 C   0  0  0  0  0  2  0  0  0  0  0  0
  -42.3210   35.2230   11.0250 C   0  0  0  0  0  3  0  0  0  0  0  0
  -41.5170   35.1010   14.6490 O   0  0  0  0  0  0  0  0  0  0  0  0
  -42.1930   35.8130   15.6170 C   0  0  0  0  0  1  0  0  0  0  0  0
  -43.6330   34.4040   12.8720 O   0  0  0  0  0  0  0  0  0  0  0  0
  -44.8650   35.0150   12.9930 C   0  0  0  0  0  1  0  0  0  0  0  0
  1 15  1  0  0  0  0
  2 20  1  0  0  0  0
  2 16  1  0  0  0  0
  3  9  1  0  0  0  0
  3  4  1  0  0  0  0
  5  4  1  0  0  0  0
  6 10  1  6  0  0  0
  6  3  1  0  0  0  0
  7  5  1  0  0  0  0
  8  6  1  0  0  0  0
  8  7  2  0  0  0  0
 10 12  2  0  0  0  0
 11 17  1  0  0  0  0
 11  9  2  0  0  0  0
 12 11  1  0  0  0  0
 13  7  1  0  0  0  0
 14  8  1  0  0  0  0
 15 13  2  0  0  0  0
 16 14  2  0  0  0  0
 16 15  1  0  0  0  0
 17 22  1  0  0  0  0
 18 21  2  0  0  0  0
 18 12  1  0  0  0  0
 19 24  1  0  0  0  0
 19 17  2  0  0  0  0
 20  1  1  0  0  0  0
 21 19  1  0  0  0  0
 22 23  1  0  0  0  0
 24 25  1  0  0  0  0
M  END
>  <MODEL>
10

>  <REMARK>
 VINA RESULT:    -7.338     29.843     31.414
 INTER + INTRA:          -8.307
 INTER:                  -8.190
 INTRA:                  -0.117
 UNBOUND:                -0.110
  2 active torsions:
  status: ('A' for Active; 'I' for Inactive)
    1  A    between atoms: O3_3  and  C14_19 
    2  A    between atoms: O4_4  and  C16_21 

>  <TORSDO>
F 2

$$$$
./Berberina.pdbqt
 OpenBabel10282519553D

 25 29  0  0  1  0  0  0  0  0999 V2000
  -43.9670   34.8170   12.8600 O   0  0  0  0  0  0  0  0  0  0  0  0
  -44.0160   35.8570   10.8880 O   0  0  0  0  0  0  0  0  0  0  0  0
  -38.0590   37.0030   11.8700 N   0  0  0  0  0  0  0  0  0  0  0  0
  -38.0480   35.9320   12.8860 C   0  0  0  0  0  2  0  0  0  0  0  0
  -39.2490   36.0910   13.8010 C   0  0  0  0  0  2  0  0  0  0  0  0
  -39.2330   37.3180   11.2220 C   0  0  1  0  0  3  0  0  0  0  0  0
  -40.4910   36.0190   12.9510 C   0  0  0  0  0  0  0  0  0  0  0  0
  -40.5040   36.6650   11.6770 C   0  0  0  0  0  0  0  0  0  0  0  0
  -36.8920   37.6420   11.5650 C   0  0  0  0  0  3  0  0  0  0  0  0
  -39.2170   38.2660   10.1830 C   0  0  0  0  0  3  0  0  0  0  0  0
  -36.8400   38.6100   10.5470 C   0  0  0  0  0  0  0  0  0  0  0  0
  -38.0220   38.9050    9.8400 C   0  0  0  0  0  0  0  0  0  0  0  0
  -41.6390   35.3460   13.4220 C   0  0  0  0  0  3  0  0  0  0  0  0
  -41.6940   36.6600   10.9090 C   0  0  0  0  0  3  0  0  0  0  0  0
  -42.7740   35.3650   12.6210 C   0  0  0  0  0  0  0  0  0  0  0  0
  -42.8020   35.9960   11.4280 C   0  0  0  0  0  0  0  0  0  0  0  0
  -35.6330   39.2780   10.2360 C   0  0  0  0  0  0  0  0  0  0  0  0
  -37.9970   39.8460    8.8080 C   0  0  0  0  0  3  0  0  0  0  0  0
  -35.6140   40.2180    9.1690 C   0  0  0  0  0  0  0  0  0  0  0  0
  -44.7890   35.1130   11.7760 C   0  0  0  0  0  2  0  0  0  0  0  0
  -36.8080   40.4860    8.4680 C   0  0  0  0  0  3  0  0  0  0  0  0
  -34.5380   38.9830   10.9960 O   0  0  0  0  0  0  0  0  0  0  0  0
  -33.9530   39.7440   11.9860 C   0  0  0  0  0  1  0  0  0  0  0  0
  -34.4500   40.8270    8.8230 O   0  0  0  0  0  0  0  0  0  0  0  0
  -33.5090   40.3550    7.9310 C   0  0  0  0  0  1  0  0  0  0  0  0
  2 16  1  0  0  0  0
  2 20  1  0  0  0  0
  3  4  1  0  0  0  0
  4  5  1  0  0  0  0
  6 10  1  1  0  0  0
  6  8  1  0  0  0  0
  6  3  1  0  0  0  0
  7 13  1  0  0  0  0
  7  5  1  0  0  0  0
  8  7  2  0  0  0  0
  9  3  1  0  0  0  0
 11  9  2  0  0  0  0
 12 10  2  0  0  0  0
 12 11  1  0  0  0  0
 14 16  2  0  0  0  0
 14  8  1  0  0  0  0
 15  1  1  0  0  0  0
 15 13  2  0  0  0  0
 16 15  1  0  0  0  0
 17 11  1  0  0  0  0
 17 22  1  0  0  0  0
 18 12  1  0  0  0  0
 19 17  2  0  0  0  0
 20  1  1  0  0  0  0
 21 18  2  0  0  0  0
 21 19  1  0  0  0  0
 22 23  1  0  0  0  0
 24 19  1  0  0  0  0
 25 24  1  0  0  0  0
M  END
>  <MODEL>
11

>  <REMARK>
 VINA RESULT:    -7.264     29.825     31.420
 INTER + INTRA:          -8.224
 INTER:                  -8.103
 INTRA:                  -0.121
 UNBOUND:                -0.110
  2 active torsions:
  status: ('A' for Active; 'I' for Inactive)
    1  A    between atoms: O3_3  and  C14_19 
    2  A    between atoms: O4_4  and  C16_21 

>  <TORSDO>
F 2

$$$$
./Berberina.pdbqt
 OpenBabel10282519553D

 25 29  0  0  1  0  0  0  0  0999 V2000
  -39.9950   33.6820    1.6970 O   0  0  0  0  0  0  0  0  0  0  0  0
  -38.7300   32.4080    3.0200 O   0  0  0  0  0  0  0  0  0  0  0  0
  -42.9110   28.0200    2.0130 N   0  0  0  0  0  0  0  0  0  0  0  0
  -43.3830   28.7770    0.8370 C   0  0  0  0  0  2  0  0  0  0  0  0
  -43.5550   30.2380    1.2120 C   0  0  0  0  0  2  0  0  0  0  0  0
  -41.8970   28.5310    2.7930 C   0  0  1  0  0  3  0  0  0  0  0  0
  -42.2210   30.7530    1.6890 C   0  0  0  0  0  0  0  0  0  0  0  0
  -41.4050   29.9200    2.5140 C   0  0  0  0  0  0  0  0  0  0  0  0
  -43.4650   26.8030    2.2870 C   0  0  0  0  0  3  0  0  0  0  0  0
  -41.3810   27.7600    3.8490 C   0  0  0  0  0  3  0  0  0  0  0  0
  -42.9910   26.0110    3.3470 C   0  0  0  0  0  0  0  0  0  0  0  0
  -41.9190   26.4990    4.1220 C   0  0  0  0  0  0  0  0  0  0  0  0
  -41.7970   32.0550    1.3480 C   0  0  0  0  0  3  0  0  0  0  0  0
  -40.1850   30.4300    3.0210 C   0  0  0  0  0  3  0  0  0  0  0  0
  -40.5870   32.4970    1.8670 C   0  0  0  0  0  0  0  0  0  0  0  0
  -39.8230   31.7270    2.6680 C   0  0  0  0  0  0  0  0  0  0  0  0
  -43.5700   24.7540    3.6360 C   0  0  0  0  0  0  0  0  0  0  0  0
  -41.4100   25.7250    5.1670 C   0  0  0  0  0  3  0  0  0  0  0  0
  -43.0300   23.9660    4.6890 C   0  0  0  0  0  0  0  0  0  0  0  0
  -38.8060   33.6640    2.4210 C   0  0  0  0  0  2  0  0  0  0  0  0
  -41.9490   24.4710    5.4410 C   0  0  0  0  0  3  0  0  0  0  0  0
  -44.6390   24.3670    2.8810 O   0  0  0  0  0  0  0  0  0  0  0  0
  -45.9760   24.3880    3.2160 C   0  0  0  0  0  1  0  0  0  0  0  0
  -43.5410   22.7330    4.9440 O   0  0  0  0  0  0  0  0  0  0  0  0
  -43.4670   21.6270    4.1210 C   0  0  0  0  0  1  0  0  0  0  0  0
  1 15  1  0  0  0  0
  1 20  1  0  0  0  0
  3  9  1  0  0  0  0
  3  6  1  0  0  0  0
  4  5  1  0  0  0  0
  4  3  1  0  0  0  0
  5  7  1  0  0  0  0
  6 10  1  1  0  0  0
  7  8  1  0  0  0  0
  8  6  1  0  0  0  0
  8 14  2  0  0  0  0
  9 11  2  0  0  0  0
 10 12  2  0  0  0  0
 11 17  1  0  0  0  0
 11 12  1  0  0  0  0
 12 18  1  0  0  0  0
 13  7  2  0  0  0  0
 13 15  1  0  0  0  0
 15 16  2  0  0  0  0
 16  2  1  0  0  0  0
 16 14  1  0  0  0  0
 17 19  2  0  0  0  0
 18 21  2  0  0  0  0
 19 24  1  0  0  0  0
 19 21  1  0  0  0  0
 20  2  1  0  0  0  0
 22 23  1  0  0  0  0
 22 17  1  0  0  0  0
 25 24  1  0  0  0  0
M  END
>  <MODEL>
12

>  <REMARK>
 VINA RESULT:    -7.196     19.954     20.840
 INTER + INTRA:          -8.148
 INTER:                  -8.132
 INTRA:                  -0.016
 UNBOUND:                -0.110
  2 active torsions:
  status: ('A' for Active; 'I' for Inactive)
    1  A    between atoms: O3_3  and  C14_19 
    2  A    between atoms: O4_4  and  C16_21 

>  <TORSDO>
F 2

$$$$
./Berberina.pdbqt
 OpenBabel10282519553D

 25 29  0  0  1  0  0  0  0  0999 V2000
  -40.6640   20.4600  -18.7970 O   0  0  0  0  0  0  0  0  0  0  0  0
  -39.1050   18.8670  -18.7060 O   0  0  0  0  0  0  0  0  0  0  0  0
  -36.1950   22.5870  -14.7760 N   0  0  0  0  0  0  0  0  0  0  0  0
  -37.4620   23.3170  -14.5700 C   0  0  0  0  0  2  0  0  0  0  0  0
  -38.1020   23.6080  -15.9160 C   0  0  0  0  0  2  0  0  0  0  0  0
  -36.1470   21.5390  -15.6680 C   0  0  1  0  0  3  0  0  0  0  0  0
  -38.3410   22.2900  -16.6090 C   0  0  0  0  0  0  0  0  0  0  0  0
  -37.3490   21.2650  -16.5220 C   0  0  0  0  0  0  0  0  0  0  0  0
  -35.0970   22.9430  -14.0480 C   0  0  0  0  0  3  0  0  0  0  0  0
  -34.9680   20.7820  -15.7840 C   0  0  0  0  0  3  0  0  0  0  0  0
  -33.8940   22.2240  -14.1500 C   0  0  0  0  0  0  0  0  0  0  0  0
  -33.8460   21.1170  -15.0210 C   0  0  0  0  0  0  0  0  0  0  0  0
  -39.5190   22.0830  -17.3580 C   0  0  0  0  0  3  0  0  0  0  0  0
  -37.5410   20.0550  -17.2320 C   0  0  0  0  0  3  0  0  0  0  0  0
  -39.6560   20.8720  -18.0240 C   0  0  0  0  0  0  0  0  0  0  0  0
  -38.7120   19.9090  -17.9700 C   0  0  0  0  0  0  0  0  0  0  0  0
  -32.7530   22.5970  -13.4020 C   0  0  0  0  0  0  0  0  0  0  0  0
  -32.6710   20.3690  -15.1280 C   0  0  0  0  0  3  0  0  0  0  0  0
  -31.5710   21.8150  -13.5020 C   0  0  0  0  0  0  0  0  0  0  0  0
  -40.3470   19.1840  -19.2540 C   0  0  0  0  0  2  0  0  0  0  0  0
  -31.5520   20.7040  -14.3710 C   0  0  0  0  0  3  0  0  0  0  0  0
  -32.8530   23.7110  -12.6200 O   0  0  0  0  0  0  0  0  0  0  0  0
  -32.9740   23.7860  -11.2480 C   0  0  0  0  0  1  0  0  0  0  0  0
  -30.4840   22.1300  -12.7490 O   0  0  0  0  0  0  0  0  0  0  0  0
  -29.1710   22.1580  -13.1720 C   0  0  0  0  0  1  0  0  0  0  0  0
  1 15  1  0  0  0  0
  2 16  1  0  0  0  0
  3  4  1  0  0  0  0
  3  9  1  0  0  0  0
  5  4  1  0  0  0  0
  6 10  1  6  0  0  0
  6  3  1  0  0  0  0
  7  8  1  0  0  0  0
  7  5  1  0  0  0  0
  8  6  1  0  0  0  0
 10 12  2  0  0  0  0
 11  9  2  0  0  0  0
 11 17  1  0  0  0  0
 12 11  1  0  0  0  0
 13  7  2  0  0  0  0
 14  8  2  0  0  0  0
 15 16  2  0  0  0  0
 15 13  1  0  0  0  0
 16 14  1  0  0  0  0
 17 22  1  0  0  0  0
 18 12  1  0  0  0  0
 18 21  2  0  0  0  0
 19 17  2  0  0  0  0
 19 24  1  0  0  0  0
 20  1  1  0  0  0  0
 20  2  1  0  0  0  0
 21 19  1  0  0  0  0
 22 23  1  0  0  0  0
 25 24  1  0  0  0  0
M  END
>  <MODEL>
13

>  <REMARK>
 VINA RESULT:    -7.148      1.995      7.567
 INTER + INTRA:          -8.094
 INTER:                  -8.023
 INTRA:                  -0.071
 UNBOUND:                -0.110
  2 active torsions:
  status: ('A' for Active; 'I' for Inactive)
    1  A    between atoms: O3_3  and  C14_19 
    2  A    between atoms: O4_4  and  C16_21 

>  <TORSDO>
F 2

$$$$
./Berberina.pdbqt
 OpenBabel10282519553D

 25 29  0  0  1  0  0  0  0  0999 V2000
  -43.8420   22.9600   -5.5670 O   0  0  0  0  0  0  0  0  0  0  0  0
  -43.5170   24.9350   -6.5500 O   0  0  0  0  0  0  0  0  0  0  0  0
  -43.5760   27.2540   -0.8600 N   0  0  0  0  0  0  0  0  0  0  0  0
  -43.3290   25.8970   -0.3330 C   0  0  0  0  0  2  0  0  0  0  0  0
  -44.2680   24.9140   -1.0090 C   0  0  0  0  0  2  0  0  0  0  0  0
  -43.7210   27.4440   -2.2160 C   0  0  1  0  0  3  0  0  0  0  0  0
  -44.0110   24.9740   -2.4930 C   0  0  0  0  0  0  0  0  0  0  0  0
  -43.7770   26.2420   -3.1110 C   0  0  0  0  0  0  0  0  0  0  0  0
  -43.6200   28.3060    0.0080 C   0  0  0  0  0  3  0  0  0  0  0  0
  -43.8510   28.7500   -2.7220 C   0  0  0  0  0  3  0  0  0  0  0  0
  -43.7700   29.6240   -0.4560 C   0  0  0  0  0  0  0  0  0  0  0  0
  -43.8680   29.8390   -1.8450 C   0  0  0  0  0  0  0  0  0  0  0  0
  -44.0310   23.7960   -3.2690 C   0  0  0  0  0  3  0  0  0  0  0  0
  -43.6070   26.3070   -4.5150 C   0  0  0  0  0  3  0  0  0  0  0  0
  -43.8490   23.9210   -4.6400 C   0  0  0  0  0  0  0  0  0  0  0  0
  -43.6530   25.1160   -5.2340 C   0  0  0  0  0  0  0  0  0  0  0  0
  -43.8250   30.7140    0.4430 C   0  0  0  0  0  0  0  0  0  0  0  0
  -43.9950   31.1400   -2.3390 C   0  0  0  0  0  3  0  0  0  0  0  0
  -43.9320   32.0350   -0.0720 C   0  0  0  0  0  0  0  0  0  0  0  0
  -43.6360   23.5700   -6.8010 C   0  0  0  0  0  2  0  0  0  0  0  0
  -44.0150   32.2250   -1.4660 C   0  0  0  0  0  3  0  0  0  0  0  0
  -43.7780   30.4300    1.7770 O   0  0  0  0  0  0  0  0  0  0  0  0
  -42.6820   30.4190    2.6130 C   0  0  0  0  0  1  0  0  0  0  0  0
  -43.9310   33.0950    0.7780 O   0  0  0  0  0  0  0  0  0  0  0  0
  -42.8270   33.8070    1.2020 C   0  0  0  0  0  1  0  0  0  0  0  0
  1 15  1  0  0  0  0
  2 16  1  0  0  0  0
  3  4  1  0  0  0  0
  3  9  1  0  0  0  0
  5  4  1  0  0  0  0
  6 10  1  1  0  0  0
  6  3  1  0  0  0  0
  7  5  1  0  0  0  0
  8  7  1  0  0  0  0
  8  6  1  0  0  0  0
 10 12  2  0  0  0  0
 11  9  2  0  0  0  0
 11 17  1  0  0  0  0
 12 11  1  0  0  0  0
 13  7  2  0  0  0  0
 14  8  2  0  0  0  0
 15 13  1  0  0  0  0
 16 15  2  0  0  0  0
 16 14  1  0  0  0  0
 17 22  1  0  0  0  0
 18 12  1  0  0  0  0
 18 21  2  0  0  0  0
 19 17  2  0  0  0  0
 19 24  1  0  0  0  0
 20  2  1  0  0  0  0
 20  1  1  0  0  0  0
 21 19  1  0  0  0  0
 22 23  1  0  0  0  0
 24 25  1  0  0  0  0
M  END
>  <MODEL>
14

>  <REMARK>
 VINA RESULT:    -7.109     14.811     18.793
 INTER + INTRA:          -8.050
 INTER:                  -7.967
 INTRA:                  -0.083
 UNBOUND:                -0.110
  2 active torsions:
  status: ('A' for Active; 'I' for Inactive)
    1  A    between atoms: O3_3  and  C14_19 
    2  A    between atoms: O4_4  and  C16_21 

>  <TORSDO>
F 2

$$$$
./Berberina.pdbqt
 OpenBabel10282519553D

 25 29  0  0  1  0  0  0  0  0999 V2000
  -41.7470   18.5480  -17.7730 O   0  0  0  0  0  0  0  0  0  0  0  0
  -42.4380   19.8580  -16.1060 O   0  0  0  0  0  0  0  0  0  0  0  0
  -36.5720   21.6440  -15.7000 N   0  0  0  0  0  0  0  0  0  0  0  0
  -36.3440   21.1130  -17.0590 C   0  0  0  0  0  2  0  0  0  0  0  0
  -36.9490   19.7250  -17.1670 C   0  0  0  0  0  2  0  0  0  0  0  0
  -37.8120   21.5150  -15.1150 C   0  0  1  0  0  3  0  0  0  0  0  0
  -38.4220   19.8380  -16.8690 C   0  0  0  0  0  0  0  0  0  0  0  0
  -38.8580   20.7010  -15.8160 C   0  0  0  0  0  0  0  0  0  0  0  0
  -35.5540   22.2880  -15.0590 C   0  0  0  0  0  3  0  0  0  0  0  0
  -38.0540   22.1130  -13.8650 C   0  0  0  0  0  3  0  0  0  0  0  0
  -35.7500   22.8810  -13.7990 C   0  0  0  0  0  0  0  0  0  0  0  0
  -37.0280   22.8020  -13.2110 C   0  0  0  0  0  0  0  0  0  0  0  0
  -39.3580   19.0770  -17.6010 C   0  0  0  0  0  3  0  0  0  0  0  0
  -40.2350   20.7520  -15.4880 C   0  0  0  0  0  3  0  0  0  0  0  0
  -40.6960   19.1760  -17.2410 C   0  0  0  0  0  0  0  0  0  0  0  0
  -41.1120   19.9680  -16.2320 C   0  0  0  0  0  0  0  0  0  0  0  0
  -34.6930   23.5410  -13.1300 C   0  0  0  0  0  0  0  0  0  0  0  0
  -37.2590   23.4010  -11.9710 C   0  0  0  0  0  3  0  0  0  0  0  0
  -34.9460   24.1660  -11.8780 C   0  0  0  0  0  0  0  0  0  0  0  0
  -42.8780   18.9560  -17.0720 C   0  0  0  0  0  2  0  0  0  0  0  0
  -36.2370   24.0840  -11.3180 C   0  0  0  0  0  3  0  0  0  0  0  0
  -33.4680   23.5340  -13.7310 O   0  0  0  0  0  0  0  0  0  0  0  0
  -32.4310   22.6430  -13.5510 C   0  0  0  0  0  1  0  0  0  0  0  0
  -33.9540   24.8500  -11.2500 O   0  0  0  0  0  0  0  0  0  0  0  0
  -33.0120   24.3250  -10.3880 C   0  0  0  0  0  1  0  0  0  0  0  0
  1 15  1  0  0  0  0
  1 20  1  0  0  0  0
  3  6  1  0  0  0  0
  3  9  1  0  0  0  0
  4  3  1  0  0  0  0
  5  4  1  0  0  0  0
  5  7  1  0  0  0  0
  6 10  1  1  0  0  0
  7  8  1  0  0  0  0
  8 14  2  0  0  0  0
  8  6  1  0  0  0  0
  9 11  2  0  0  0  0
 10 12  2  0  0  0  0
 11 12  1  0  0  0  0
 11 17  1  0  0  0  0
 12 18  1  0  0  0  0
 13 15  1  0  0  0  0
 13  7  2  0  0  0  0
 15 16  2  0  0  0  0
 16  2  1  0  0  0  0
 16 14  1  0  0  0  0
 17 19  2  0  0  0  0
 18 21  2  0  0  0  0
 19 21  1  0  0  0  0
 19 24  1  0  0  0  0
 20  2  1  0  0  0  0
 22 23  1  0  0  0  0
 22 17  1  0  0  0  0
 24 25  1  0  0  0  0
M  END
>  <MODEL>
15

>  <REMARK>
 VINA RESULT:    -7.078      2.653      8.604
 INTER + INTRA:          -8.016
 INTER:                  -7.950
 INTRA:                  -0.066
 UNBOUND:                -0.110
  2 active torsions:
  status: ('A' for Active; 'I' for Inactive)
    1  A    between atoms: O3_3  and  C14_19 
    2  A    between atoms: O4_4  and  C16_21 

>  <TORSDO>
F 2

$$$$
./Berberina.pdbqt
 OpenBabel10282519553D

 25 29  0  0  1  0  0  0  0  0999 V2000
  -42.0490   33.5400    7.0750 O   0  0  0  0  0  0  0  0  0  0  0  0
  -43.8390   32.2110    7.1200 O   0  0  0  0  0  0  0  0  0  0  0  0
  -42.5590   31.0620    1.2210 N   0  0  0  0  0  0  0  0  0  0  0  0
  -41.1930   31.5760    1.4450 C   0  0  0  0  0  2  0  0  0  0  0  0
  -41.2660   32.8900    2.2020 C   0  0  0  0  0  2  0  0  0  0  0  0
  -43.4720   31.0760    2.2520 C   0  0  1  0  0  3  0  0  0  0  0  0
  -41.9690   32.6320    3.5100 C   0  0  0  0  0  0  0  0  0  0  0  0
  -43.0990   31.7570    3.5350 C   0  0  0  0  0  0  0  0  0  0  0  0
  -42.8840   30.5460    0.0000 C   0  0  0  0  0  3  0  0  0  0  0  0
  -44.7370   30.4910    2.0650 C   0  0  0  0  0  3  0  0  0  0  0  0
  -44.1450   29.9710   -0.2330 C   0  0  0  0  0  0  0  0  0  0  0  0
  -45.0710   29.9320    0.8280 C   0  0  0  0  0  0  0  0  0  0  0  0
  -41.5340   33.2700    4.6920 C   0  0  0  0  0  3  0  0  0  0  0  0
  -43.8040   31.5710    4.7500 C   0  0  0  0  0  3  0  0  0  0  0  0
  -42.2590   33.0410    5.8540 C   0  0  0  0  0  0  0  0  0  0  0  0
  -43.3420   32.2380    5.8810 C   0  0  0  0  0  0  0  0  0  0  0  0
  -44.4850   29.4440   -1.5010 C   0  0  0  0  0  0  0  0  0  0  0  0
  -46.3250   29.3470    0.6340 C   0  0  0  0  0  3  0  0  0  0  0  0
  -45.7550   28.8310   -1.6800 C   0  0  0  0  0  0  0  0  0  0  0  0
  -43.0400   33.0350    7.9110 C   0  0  0  0  0  2  0  0  0  0  0  0
  -46.6590   28.7930   -0.5990 C   0  0  0  0  0  3  0  0  0  0  0  0
  -43.5610   29.5630   -2.4980 O   0  0  0  0  0  0  0  0  0  0  0  0
  -43.5810   30.4080   -3.5870 C   0  0  0  0  0  1  0  0  0  0  0  0
  -46.0740   28.2720   -2.8770 O   0  0  0  0  0  0  0  0  0  0  0  0
  -45.7150   27.0140   -3.3180 C   0  0  0  0  0  1  0  0  0  0  0  0
  1 20  1  0  0  0  0
  2 20  1  0  0  0  0
  3  4  1  0  0  0  0
  3  6  1  0  0  0  0
  4  5  1  0  0  0  0
  5  7  1  0  0  0  0
  6 10  1  6  0  0  0
  6  8  1  0  0  0  0
  7  8  2  0  0  0  0
  7 13  1  0  0  0  0
  8 14  1  0  0  0  0
  9  3  1  0  0  0  0
 11  9  2  0  0  0  0
 11 12  1  0  0  0  0
 12 10  2  0  0  0  0
 13 15  2  0  0  0  0
 14 16  2  0  0  0  0
 15 16  1  0  0  0  0
 15  1  1  0  0  0  0
 16  2  1  0  0  0  0
 17 11  1  0  0  0  0
 18 12  1  0  0  0  0
 19 17  2  0  0  0  0
 19 21  1  0  0  0  0
 21 18  2  0  0  0  0
 22 17  1  0  0  0  0
 23 22  1  0  0  0  0
 24 19  1  0  0  0  0
 25 24  1  0  0  0  0
M  END
>  <MODEL>
16

>  <REMARK>
 VINA RESULT:    -6.968     18.273     21.314
 INTER + INTRA:          -7.893
 INTER:                  -7.783
 INTRA:                  -0.110
 UNBOUND:                -0.110
  2 active torsions:
  status: ('A' for Active; 'I' for Inactive)
    1  A    between atoms: O3_3  and  C14_19 
    2  A    between atoms: O4_4  and  C16_21 

>  <TORSDO>
F 2

$$$$
./Berberina.pdbqt
 OpenBabel10282519553D

 25 29  0  0  1  0  0  0  0  0999 V2000
   -7.0150   37.8830    9.5620 O   0  0  0  0  0  0  0  0  0  0  0  0
   -7.6610   35.8320   10.1530 O   0  0  0  0  0  0  0  0  0  0  0  0
   -2.4980   33.9230    7.4240 N   0  0  0  0  0  0  0  0  0  0  0  0
   -1.9770   35.3020    7.5030 C   0  0  0  0  0  2  0  0  0  0  0  0
   -3.0440   36.2720    7.0290 C   0  0  0  0  0  2  0  0  0  0  0  0
   -3.7660   33.6430    7.8820 C   0  0  1  0  0  3  0  0  0  0  0  0
   -4.2530   36.0980    7.9120 C   0  0  0  0  0  0  0  0  0  0  0  0
   -4.6440   34.7810    8.3090 C   0  0  0  0  0  0  0  0  0  0  0  0
   -1.6950   32.9370    6.9280 C   0  0  0  0  0  3  0  0  0  0  0  0
   -4.2180   32.3120    7.9000 C   0  0  0  0  0  3  0  0  0  0  0  0
   -2.1180   31.5970    6.9100 C   0  0  0  0  0  0  0  0  0  0  0  0
   -3.3940   31.2880    7.4230 C   0  0  0  0  0  0  0  0  0  0  0  0
   -5.0080   37.2190    8.3180 C   0  0  0  0  0  3  0  0  0  0  0  0
   -5.8210   34.6110    9.0790 C   0  0  0  0  0  3  0  0  0  0  0  0
   -6.1460   36.9910    9.0800 C   0  0  0  0  0  0  0  0  0  0  0  0
   -6.5370   35.7500    9.4370 C   0  0  0  0  0  0  0  0  0  0  0  0
   -1.2900   30.5750    6.3890 C   0  0  0  0  0  0  0  0  0  0  0  0
   -3.8340   29.9630    7.4400 C   0  0  0  0  0  3  0  0  0  0  0  0
   -1.7390   29.2270    6.4310 C   0  0  0  0  0  0  0  0  0  0  0  0
   -7.9990   37.1800   10.2510 C   0  0  0  0  0  2  0  0  0  0  0  0
   -3.0140   28.9440    6.9620 C   0  0  0  0  0  3  0  0  0  0  0  0
   -0.0900   30.9500    5.8580 O   0  0  0  0  0  0  0  0  0  0  0  0
    1.1370   31.0220    6.4830 C   0  0  0  0  0  1  0  0  0  0  0  0
   -0.9320   28.2300    5.9840 O   0  0  0  0  0  0  0  0  0  0  0  0
   -1.0000   27.6070    4.7530 C   0  0  0  0  0  1  0  0  0  0  0  0
  1 20  1  0  0  0  0
  2 20  1  0  0  0  0
  3  4  1  0  0  0  0
  3  6  1  0  0  0  0
  5  4  1  0  0  0  0
  5  7  1  0  0  0  0
  6 10  1  6  0  0  0
  6  8  1  0  0  0  0
  7  8  2  0  0  0  0
  7 13  1  0  0  0  0
  8 14  1  0  0  0  0
  9  3  1  0  0  0  0
 11  9  2  0  0  0  0
 11 12  1  0  0  0  0
 12 18  1  0  0  0  0
 12 10  2  0  0  0  0
 13 15  2  0  0  0  0
 14 16  2  0  0  0  0
 15 16  1  0  0  0  0
 15  1  1  0  0  0  0
 16  2  1  0  0  0  0
 17 19  2  0  0  0  0
 17 11  1  0  0  0  0
 19 21  1  0  0  0  0
 21 18  2  0  0  0  0
 22 17  1  0  0  0  0
 22 23  1  0  0  0  0
 24 19  1  0  0  0  0
 25 24  1  0  0  0  0
M  END
>  <MODEL>
17

>  <REMARK>
 VINA RESULT:    -6.844     38.826     39.893
 INTER + INTRA:          -7.755
 INTER:                  -7.695
 INTRA:                  -0.060
 UNBOUND:                -0.110
  2 active torsions:
  status: ('A' for Active; 'I' for Inactive)
    1  A    between atoms: O3_3  and  C14_19 
    2  A    between atoms: O4_4  and  C16_21 

>  <TORSDO>
F 2

$$$$
./Berberina.pdbqt
 OpenBabel10282519553D

 25 29  0  0  1  0  0  0  0  0999 V2000
  -42.4580   22.2510  -16.7870 O   0  0  0  0  0  0  0  0  0  0  0  0
  -41.8180   24.2030  -15.9190 O   0  0  0  0  0  0  0  0  0  0  0  0
  -36.2780   21.6050  -15.3510 N   0  0  0  0  0  0  0  0  0  0  0  0
  -36.6900   20.5770  -16.3270 C   0  0  0  0  0  2  0  0  0  0  0  0
  -38.0680   20.0560  -15.9600 C   0  0  0  0  0  2  0  0  0  0  0  0
  -37.1730   22.5790  -14.9660 C   0  0  1  0  0  3  0  0  0  0  0  0
  -39.0210   21.2230  -15.9680 C   0  0  0  0  0  0  0  0  0  0  0  0
  -38.5940   22.4780  -15.4350 C   0  0  0  0  0  0  0  0  0  0  0  0
  -35.0010   21.5940  -14.8720 C   0  0  0  0  0  3  0  0  0  0  0  0
  -36.7450   23.6160  -14.1170 C   0  0  0  0  0  3  0  0  0  0  0  0
  -34.5410   22.6000  -14.0050 C   0  0  0  0  0  0  0  0  0  0  0  0
  -35.4300   23.6320  -13.6430 C   0  0  0  0  0  0  0  0  0  0  0  0
  -40.3320   21.0700  -16.4700 C   0  0  0  0  0  3  0  0  0  0  0  0
  -39.5120   23.5540  -15.3750 C   0  0  0  0  0  3  0  0  0  0  0  0
  -41.1840   22.1630  -16.3950 C   0  0  0  0  0  0  0  0  0  0  0  0
  -40.7970   23.3430  -15.8680 C   0  0  0  0  0  0  0  0  0  0  0  0
  -33.2200   22.5840  -13.5010 C   0  0  0  0  0  0  0  0  0  0  0  0
  -34.9960   24.6590  -12.8020 C   0  0  0  0  0  3  0  0  0  0  0  0
  -32.7830   23.6460  -12.6630 C   0  0  0  0  0  0  0  0  0  0  0  0
  -42.8980   23.5390  -16.4970 C   0  0  0  0  0  2  0  0  0  0  0  0
  -33.6870   24.6740  -12.3270 C   0  0  0  0  0  3  0  0  0  0  0  0
  -32.4290   21.5280  -13.8480 O   0  0  0  0  0  0  0  0  0  0  0  0
  -31.5290   21.4370  -14.8890 C   0  0  0  0  0  1  0  0  0  0  0  0
  -31.4990   23.6720  -12.2160 O   0  0  0  0  0  0  0  0  0  0  0  0
  -31.0760   23.4520  -10.9200 C   0  0  0  0  0  1  0  0  0  0  0  0
  1 20  1  0  0  0  0
  1 15  1  0  0  0  0
  2 16  1  0  0  0  0
  3  6  1  0  0  0  0
  3  9  1  0  0  0  0
  4  5  1  0  0  0  0
  4  3  1  0  0  0  0
  6 10  1  1  0  0  0
  7  5  1  0  0  0  0
  7  8  1  0  0  0  0
  8 14  2  0  0  0  0
  8  6  1  0  0  0  0
  9 11  2  0  0  0  0
 10 12  2  0  0  0  0
 11 12  1  0  0  0  0
 11 17  1  0  0  0  0
 12 18  1  0  0  0  0
 13 15  1  0  0  0  0
 13  7  2  0  0  0  0
 15 16  2  0  0  0  0
 16 14  1  0  0  0  0
 17 19  2  0  0  0  0
 18 21  2  0  0  0  0
 19 21  1  0  0  0  0
 19 24  1  0  0  0  0
 20  2  1  0  0  0  0
 22 17  1  0  0  0  0
 23 22  1  0  0  0  0
 24 25  1  0  0  0  0
M  END
>  <MODEL>
18

>  <REMARK>
 VINA RESULT:    -6.806      2.994      7.954
 INTER + INTRA:          -7.712
 INTER:                  -7.645
 INTRA:                  -0.067
 UNBOUND:                -0.110
  2 active torsions:
  status: ('A' for Active; 'I' for Inactive)
    1  A    between atoms: O3_3  and  C14_19 
    2  A    between atoms: O4_4  and  C16_21 

>  <TORSDO>
F 2

$$$$
./Berberina.pdbqt
 OpenBabel10282519553D

 25 29  0  0  1  0  0  0  0  0999 V2000
  -50.9320   30.0480    5.0940 O   0  0  0  0  0  0  0  0  0  0  0  0
  -50.2620   30.5060    3.0170 O   0  0  0  0  0  0  0  0  0  0  0  0
  -44.7110   31.3850    5.5020 N   0  0  0  0  0  0  0  0  0  0  0  0
  -45.1560   30.6370    6.6940 C   0  0  0  0  0  2  0  0  0  0  0  0
  -46.5220   31.1400    7.1250 C   0  0  0  0  0  2  0  0  0  0  0  0
  -45.5910   31.6050    4.4650 C   0  0  1  0  0  3  0  0  0  0  0  0
  -47.4730   30.9390    5.9740 C   0  0  0  0  0  0  0  0  0  0  0  0
  -47.0260   31.2090    4.6430 C   0  0  0  0  0  0  0  0  0  0  0  0
  -43.4180   31.8170    5.4310 C   0  0  0  0  0  3  0  0  0  0  0  0
  -45.1340   32.2250    3.2890 C   0  0  0  0  0  3  0  0  0  0  0  0
  -42.9290   32.4600    4.2810 C   0  0  0  0  0  0  0  0  0  0  0  0
  -43.8040   32.6450    3.1930 C   0  0  0  0  0  0  0  0  0  0  0  0
  -48.7990   30.5180    6.2100 C   0  0  0  0  0  3  0  0  0  0  0  0
  -47.9410   31.0900    3.5680 C   0  0  0  0  0  3  0  0  0  0  0  0
  -49.6470   30.4090    5.1150 C   0  0  0  0  0  0  0  0  0  0  0  0
  -49.2410   30.6870    3.8590 C   0  0  0  0  0  0  0  0  0  0  0  0
  -41.5920   32.9160    4.2110 C   0  0  0  0  0  0  0  0  0  0  0  0
  -43.3410   33.2610    2.0270 C   0  0  0  0  0  3  0  0  0  0  0  0
  -41.1260   33.5210    3.0120 C   0  0  0  0  0  0  0  0  0  0  0  0
  -51.3610   30.1000    3.7710 C   0  0  0  0  0  2  0  0  0  0  0  0
  -42.0180   33.6820    1.9320 C   0  0  0  0  0  3  0  0  0  0  0  0
  -40.8140   32.7520    5.3210 O   0  0  0  0  0  0  0  0  0  0  0  0
  -39.9190   31.7410    5.5980 C   0  0  0  0  0  1  0  0  0  0  0  0
  -39.8290   33.9140    2.9110 O   0  0  0  0  0  0  0  0  0  0  0  0
  -38.7800   33.1650    2.4170 C   0  0  0  0  0  1  0  0  0  0  0  0
  1 15  1  0  0  0  0
  2 20  1  0  0  0  0
  2 16  1  0  0  0  0
  3  4  1  0  0  0  0
  4  5  1  0  0  0  0
  6 10  1  1  0  0  0
  6  8  1  0  0  0  0
  6  3  1  0  0  0  0
  7 13  1  0  0  0  0
  7  5  1  0  0  0  0
  8  7  2  0  0  0  0
  9  3  1  0  0  0  0
 11  9  2  0  0  0  0
 12 10  2  0  0  0  0
 12 11  1  0  0  0  0
 14 16  2  0  0  0  0
 14  8  1  0  0  0  0
 15 13  2  0  0  0  0
 16 15  1  0  0  0  0
 17 11  1  0  0  0  0
 17 22  1  0  0  0  0
 18 12  1  0  0  0  0
 19 17  2  0  0  0  0
 20  1  1  0  0  0  0
 21 18  2  0  0  0  0
 21 19  1  0  0  0  0
 22 23  1  0  0  0  0
 24 19  1  0  0  0  0
 25 24  1  0  0  0  0
M  END
>  <MODEL>
19

>  <REMARK>
 VINA RESULT:    -6.781     21.830     25.121
 INTER + INTRA:          -7.684
 INTER:                  -7.595
 INTRA:                  -0.089
 UNBOUND:                -0.110
  2 active torsions:
  status: ('A' for Active; 'I' for Inactive)
    1  A    between atoms: O3_3  and  C14_19 
    2  A    between atoms: O4_4  and  C16_21 

>  <TORSDO>
F 2

$$$$
./Berberina.pdbqt
 OpenBabel10282519553D

 25 29  0  0  1  0  0  0  0  0999 V2000
  -44.7100   22.6060    3.7810 O   0  0  0  0  0  0  0  0  0  0  0  0
  -44.3690   23.5430    1.7870 O   0  0  0  0  0  0  0  0  0  0  0  0
  -41.5320   28.0220    4.8940 N   0  0  0  0  0  0  0  0  0  0  0  0
  -41.4130   27.1090    6.0480 C   0  0  0  0  0  2  0  0  0  0  0  0
  -42.7480   26.4290    6.2930 C   0  0  0  0  0  2  0  0  0  0  0  0
  -42.1760   27.5990    3.7510 C   0  0  1  0  0  3  0  0  0  0  0  0
  -43.1210   25.6750    5.0430 C   0  0  0  0  0  0  0  0  0  0  0  0
  -42.8740   26.2720    3.7680 C   0  0  0  0  0  0  0  0  0  0  0  0
  -40.9680   29.2620    4.9650 C   0  0  0  0  0  3  0  0  0  0  0  0
  -42.1950   28.4320    2.6190 C   0  0  0  0  0  3  0  0  0  0  0  0
  -40.9850   30.1330    3.8620 C   0  0  0  0  0  0  0  0  0  0  0  0
  -41.5940   29.6930    2.6700 C   0  0  0  0  0  0  0  0  0  0  0  0
  -43.7330   24.4070    5.1310 C   0  0  0  0  0  3  0  0  0  0  0  0
  -43.2890   25.5960    2.5940 C   0  0  0  0  0  3  0  0  0  0  0  0
  -44.1090   23.7870    3.9460 C   0  0  0  0  0  0  0  0  0  0  0  0
  -43.9030   24.3550    2.7390 C   0  0  0  0  0  0  0  0  0  0  0  0
  -40.4080   31.4220    3.9390 C   0  0  0  0  0  0  0  0  0  0  0  0
  -41.6070   30.5270    1.5490 C   0  0  0  0  0  3  0  0  0  0  0  0
  -40.4070   32.2520    2.7860 C   0  0  0  0  0  0  0  0  0  0  0  0
  -44.8950   22.4160    2.4150 C   0  0  0  0  0  2  0  0  0  0  0  0
  -41.0120   31.7850    1.6010 C   0  0  0  0  0  3  0  0  0  0  0  0
  -39.8830   31.8040    5.1400 O   0  0  0  0  0  0  0  0  0  0  0  0
  -38.5610   31.8120    5.5320 C   0  0  0  0  0  1  0  0  0  0  0  0
  -39.8090   33.4720    2.8290 O   0  0  0  0  0  0  0  0  0  0  0  0
  -38.5620   33.7930    2.3310 C   0  0  0  0  0  1  0  0  0  0  0  0
  1 15  1  0  0  0  0
  2 20  1  0  0  0  0
  2 16  1  0  0  0  0
  3  9  1  0  0  0  0
  3  4  1  0  0  0  0
  4  5  1  0  0  0  0
  6 10  1  1  0  0  0
  6  8  1  0  0  0  0
  6  3  1  0  0  0  0
  7 13  1  0  0  0  0
  7  5  1  0  0  0  0
  8  7  2  0  0  0  0
 10 12  2  0  0  0  0
 11 17  1  0  0  0  0
 11  9  2  0  0  0  0
 12 11  1  0  0  0  0
 14 16  2  0  0  0  0
 14  8  1  0  0  0  0
 15 13  2  0  0  0  0
 16 15  1  0  0  0  0
 17 22  1  0  0  0  0
 18 21  2  0  0  0  0
 18 12  1  0  0  0  0
 19 24  1  0  0  0  0
 19 17  2  0  0  0  0
 20  1  1  0  0  0  0
 21 19  1  0  0  0  0
 22 23  1  0  0  0  0
 25 24  1  0  0  0  0
M  END
>  <MODEL>
20

>  <REMARK>
 VINA RESULT:    -6.754     20.147     22.189
 INTER + INTRA:          -7.653
 INTER:                  -7.539
 INTRA:                  -0.114
 UNBOUND:                -0.110
  2 active torsions:
  status: ('A' for Active; 'I' for Inactive)
    1  A    between atoms: O3_3  and  C14_19 
    2  A    between atoms: O4_4  and  C16_21 

>  <TORSDO>
F 2

$$$$
