./Bicuculina.pdbqt
 OpenBabel10282519553D

 28 33  0  0  1  0  0  0  0  0999 V2000
  -31.2450   23.8550  -11.4460 O   0  0  0  0  0  0  0  0  0  0  0  0
  -32.9310   24.8120  -10.0970 O   0  0  0  0  0  0  0  0  0  0  0  0
  -35.8520   22.5110  -15.4210 N   0  0  0  0  0  4  0  0  0  0  0  0
  -34.3860   22.4660  -14.9720 C   0  0  1  0  0  3  0  0  0  0  0  0
  -34.1090   23.1260  -13.6560 C   0  0  0  0  0  0  0  0  0  0  0  0
  -36.8090   22.5580  -14.2520 C   0  0  0  0  0  2  0  0  0  0  0  0
  -35.0930   23.7050  -12.8650 C   0  0  0  0  0  0  0  0  0  0  0  0
  -36.5200   23.7230  -13.3190 C   0  0  0  0  0  2  0  0  0  0  0  0
  -32.7480   23.1370  -13.2570 C   0  0  0  0  0  3  0  0  0  0  0  0
  -36.0760   23.6750  -16.3390 C   0  0  0  0  0  1  0  0  0  0  0  0
  -34.7930   24.3120  -11.6240 C   0  0  0  0  0  3  0  0  0  0  0  0
  -32.4670   23.7180  -12.0490 C   0  0  0  0  0  0  0  0  0  0  0  0
  -33.4790   24.2990  -11.2410 C   0  0  0  0  0  0  0  0  0  0  0  0
  -31.5120   24.5260  -10.1900 C   0  0  0  0  0  2  0  0  0  0  0  0
  -36.0530   21.5950  -15.9640 H   0  0  0  0  0  0  0  0  0  0  0  0
  -33.8920   20.9640  -14.9830 C   0  0  2  0  0  3  0  0  0  0  0  0
  -32.4790   21.0560  -14.8740 O   0  0  0  0  0  0  0  0  0  0  0  0
  -31.8670   20.6750  -16.1320 C   0  0  0  0  0  0  0  0  0  0  0  0
  -30.6750   20.7970  -16.1660 O   0  0  0  0  0  0  0  0  0  0  0  0
  -32.9270   20.3270  -17.0140 C   0  0  0  0  0  0  0  0  0  0  0  0
  -34.1770   20.2780  -16.2790 C   0  0  0  0  0  0  0  0  0  0  0  0
  -33.0140   19.8320  -18.3170 C   0  0  0  0  0  0  0  0  0  0  0  0
  -35.3330   19.6980  -16.7510 C   0  0  0  0  0  3  0  0  0  0  0  0
  -35.3890   19.2130  -18.0720 C   0  0  0  0  0  3  0  0  0  0  0  0
  -34.2100   19.3200  -18.8100 C   0  0  0  0  0  0  0  0  0  0  0  0
  -34.0620   18.9520  -20.1350 O   0  0  0  0  0  0  0  0  0  0  0  0
  -32.6900   19.2610  -20.4520 C   0  0  0  0  0  2  0  0  0  0  0  0
  -32.0410   19.8250  -19.2910 O   0  0  0  0  0  0  0  0  0  0  0  0
  1 14  1  0  0  0  0
  3  4  1  0  0  0  0
  3  6  1  0  0  0  0
  4  5  1  1  0  0  0
  5  9  2  0  0  0  0
  5  7  1  0  0  0  0
  6  8  1  0  0  0  0
  7 11  2  0  0  0  0
  8  7  1  0  0  0  0
  9 12  1  0  0  0  0
 10  3  1  0  0  0  0
 11 13  1  0  0  0  0
 12  1  1  0  0  0  0
 12 13  2  0  0  0  0
 13  2  1  0  0  0  0
 14  2  1  0  0  0  0
 15  3  1  0  0  0  0
 16 21  1  6  0  0  0
 16  4  1  0  0  0  0
 16 17  1  0  0  0  0
 18 17  1  0  0  0  0
 19 18  2  0  0  0  0
 20 21  1  0  0  0  0
 20 18  1  0  0  0  0
 22 20  2  0  0  0  0
 23 21  2  0  0  0  0
 24 23  1  0  0  0  0
 25 22  1  0  0  0  0
 25 24  2  0  0  0  0
 26 25  1  0  0  0  0
 27 26  1  0  0  0  0
 27 28  1  0  0  0  0
 28 22  1  0  0  0  0
M  END
>  <MODEL>
1

>  <REMARK>
 VINA RESULT:    -9.385      0.000      0.000
 INTER + INTRA:          -9.697
 INTER:                  -9.934
 INTRA:                   0.237
 UNBOUND:                 0.237
  1 active torsions:
  status: ('A' for Active; 'I' for Inactive)
    1  A    between atoms: C1_8  and  C2_9 

>  <TORSDO>
F 1

$$$$
./Bicuculina.pdbqt
 OpenBabel10282519553D

 28 33  0  0  1  0  0  0  0  0999 V2000
   -2.9830   33.0940    7.6170 O   0  0  0  0  0  0  0  0  0  0  0  0
   -2.0650   32.3390    9.6580 O   0  0  0  0  0  0  0  0  0  0  0  0
   -4.9410   38.0330   10.8750 N   0  0  0  0  0  4  0  0  0  0  0  0
   -4.8440   37.2030    9.5890 C   0  0  1  0  0  3  0  0  0  0  0  0
   -4.0770   35.9240    9.7190 C   0  0  0  0  0  0  0  0  0  0  0  0
   -4.8860   37.1740   12.1170 C   0  0  0  0  0  2  0  0  0  0  0  0
   -3.5200   35.4810   10.9130 C   0  0  0  0  0  0  0  0  0  0  0  0
   -3.6400   36.3030   12.1580 C   0  0  0  0  0  2  0  0  0  0  0  0
   -3.9350   35.1750    8.5240 C   0  0  0  0  0  3  0  0  0  0  0  0
   -3.8630   39.0750   10.8990 C   0  0  0  0  0  1  0  0  0  0  0  0
   -2.8080   34.2620   10.9990 C   0  0  0  0  0  3  0  0  0  0  0  0
   -3.2530   33.9910    8.6170 C   0  0  0  0  0  0  0  0  0  0  0  0
   -2.6960   33.5400    9.8420 C   0  0  0  0  0  0  0  0  0  0  0  0
   -2.2500   32.0210    8.2550 C   0  0  0  0  0  2  0  0  0  0  0  0
   -5.9050   38.5280   10.8690 H   0  0  0  0  0  0  0  0  0  0  0  0
   -6.3020   36.9500    9.0300 C   0  0  2  0  0  3  0  0  0  0  0  0
   -6.7330   38.2230    8.5730 O   0  0  0  0  0  0  0  0  0  0  0  0
   -7.7670   38.7320    9.4530 C   0  0  0  0  0  0  0  0  0  0  0  0
   -8.1410   39.8420    9.1960 O   0  0  0  0  0  0  0  0  0  0  0  0
   -7.9820   37.7410   10.4480 C   0  0  0  0  0  0  0  0  0  0  0  0
   -7.2590   36.5320   10.0980 C   0  0  0  0  0  0  0  0  0  0  0  0
   -8.8590   37.5870   11.5250 C   0  0  0  0  0  0  0  0  0  0  0  0
   -7.4760   35.3020   10.6780 C   0  0  0  0  0  3  0  0  0  0  0  0
   -8.3630   35.1830   11.7650 C   0  0  0  0  0  3  0  0  0  0  0  0
   -9.0110   36.3550   12.1540 C   0  0  0  0  0  0  0  0  0  0  0  0
   -9.8810   36.4690   13.2240 O   0  0  0  0  0  0  0  0  0  0  0  0
  -10.2740   37.8550   13.2320 C   0  0  0  0  0  2  0  0  0  0  0  0
   -9.6120   38.5530   12.1540 O   0  0  0  0  0  0  0  0  0  0  0  0
  1 14  1  0  0  0  0
  1 12  1  0  0  0  0
  2 13  1  0  0  0  0
  3 10  1  0  0  0  0
  3  6  1  0  0  0  0
  4  5  1  1  0  0  0
  4  3  1  0  0  0  0
  5  7  1  0  0  0  0
  6  8  1  0  0  0  0
  7 11  2  0  0  0  0
  7  8  1  0  0  0  0
  9 12  1  0  0  0  0
  9  5  2  0  0  0  0
 12 13  2  0  0  0  0
 13 11  1  0  0  0  0
 14  2  1  0  0  0  0
 15  3  1  0  0  0  0
 16 17  1  1  0  0  0
 16  4  1  0  0  0  0
 16 21  1  0  0  0  0
 17 18  1  0  0  0  0
 18 20  1  0  0  0  0
 19 18  2  0  0  0  0
 20 22  1  0  0  0  0
 21 20  2  0  0  0  0
 21 23  1  0  0  0  0
 22 25  2  0  0  0  0
 22 28  1  0  0  0  0
 23 24  2  0  0  0  0
 24 25  1  0  0  0  0
 25 26  1  0  0  0  0
 26 27  1  0  0  0  0
 28 27  1  0  0  0  0
M  END
>  <MODEL>
2

>  <REMARK>
 VINA RESULT:    -9.103     39.523     40.945
 INTER + INTRA:          -9.398
 INTER:                  -9.058
 INTRA:                  -0.340
 UNBOUND:                 0.237
  1 active torsions:
  status: ('A' for Active; 'I' for Inactive)
    1  A    between atoms: C1_8  and  C2_9 

>  <TORSDO>
F 1

$$$$
./Bicuculina.pdbqt
 OpenBabel10282519553D

 28 33  0  0  1  0  0  0  0  0999 V2000
  -32.5570   24.1120  -11.0510 O   0  0  0  0  0  0  0  0  0  0  0  0
  -30.4800   22.9900  -11.1290 O   0  0  0  0  0  0  0  0  0  0  0  0
  -33.7550   21.2760  -16.4690 N   0  0  0  0  0  4  0  0  0  0  0  0
  -34.1090   22.2420  -15.3310 C   0  0  1  0  0  3  0  0  0  0  0  0
  -33.0700   22.3630  -14.2600 C   0  0  0  0  0  0  0  0  0  0  0  0
  -32.2640   21.1690  -16.6880 C   0  0  0  0  0  2  0  0  0  0  0  0
  -31.8530   21.6940  -14.2920 C   0  0  0  0  0  0  0  0  0  0  0  0
  -31.5250   20.7670  -15.4200 C   0  0  0  0  0  2  0  0  0  0  0  0
  -33.4110   23.2120  -13.1770 C   0  0  0  0  0  3  0  0  0  0  0  0
  -34.3530   19.9260  -16.2050 C   0  0  0  0  0  1  0  0  0  0  0  0
  -30.8930   21.8400  -13.2640 C   0  0  0  0  0  3  0  0  0  0  0  0
  -32.4720   23.3570  -12.1900 C   0  0  0  0  0  0  0  0  0  0  0  0
  -31.2260   22.6780  -12.2340 C   0  0  0  0  0  0  0  0  0  0  0  0
  -31.2950   23.9180  -10.3680 C   0  0  0  0  0  2  0  0  0  0  0  0
  -34.1860   21.6760  -17.3800 H   0  0  0  0  0  0  0  0  0  0  0  0
  -34.4730   23.6510  -15.9490 C   0  0  2  0  0  3  0  0  0  0  0  0
  -35.8900   23.7130  -15.8820 O   0  0  0  0  0  0  0  0  0  0  0  0
  -36.4460   23.6150  -17.2170 C   0  0  0  0  0  0  0  0  0  0  0  0
  -37.6430   23.5770  -17.2590 O   0  0  0  0  0  0  0  0  0  0  0  0
  -35.3460   23.5120  -18.1120 C   0  0  0  0  0  0  0  0  0  0  0  0
  -34.1080   23.7530  -17.3940 C   0  0  0  0  0  0  0  0  0  0  0  0
  -35.1960   23.4500  -19.4990 C   0  0  0  0  0  0  0  0  0  0  0  0
  -32.8990   24.0160  -17.9980 C   0  0  0  0  0  3  0  0  0  0  0  0
  -32.7810   23.9400  -19.4000 C   0  0  0  0  0  3  0  0  0  0  0  0
  -33.9520   23.6400  -20.0940 C   0  0  0  0  0  0  0  0  0  0  0  0
  -34.0470   23.4700  -21.4640 O   0  0  0  0  0  0  0  0  0  0  0  0
  -35.4350   23.1620  -21.7020 C   0  0  0  0  0  2  0  0  0  0  0  0
  -36.1490   23.1460  -20.4460 O   0  0  0  0  0  0  0  0  0  0  0  0
  1 14  1  0  0  0  0
  2 14  1  0  0  0  0
  3 10  1  0  0  0  0
  3  4  1  0  0  0  0
  4  5  1  1  0  0  0
  5  9  1  0  0  0  0
  6  3  1  0  0  0  0
  6  8  1  0  0  0  0
  7  5  2  0  0  0  0
  7 11  1  0  0  0  0
  8  7  1  0  0  0  0
  9 12  2  0  0  0  0
 11 13  2  0  0  0  0
 12  1  1  0  0  0  0
 13 12  1  0  0  0  0
 13  2  1  0  0  0  0
 15  3  1  0  0  0  0
 16 21  1  6  0  0  0
 16 17  1  0  0  0  0
 16  4  1  0  0  0  0
 18 17  1  0  0  0  0
 19 18  2  0  0  0  0
 20 21  1  0  0  0  0
 20 18  1  0  0  0  0
 22 20  2  0  0  0  0
 23 21  2  0  0  0  0
 24 23  1  0  0  0  0
 25 22  1  0  0  0  0
 25 24  2  0  0  0  0
 26 25  1  0  0  0  0
 27 26  1  0  0  0  0
 27 28  1  0  0  0  0
 28 22  1  0  0  0  0
M  END
>  <MODEL>
3

>  <REMARK>
 VINA RESULT:    -8.734      2.890      4.194
 INTER + INTRA:          -9.008
 INTER:                  -8.955
 INTRA:                  -0.052
 UNBOUND:                 0.237
  1 active torsions:
  status: ('A' for Active; 'I' for Inactive)
    1  A    between atoms: C1_8  and  C2_9 

>  <TORSDO>
F 1

$$$$
./Bicuculina.pdbqt
 OpenBabel10282519553D

 28 33  0  0  1  0  0  0  0  0999 V2000
  -41.7520   26.4180    5.8540 O   0  0  0  0  0  0  0  0  0  0  0  0
  -44.0370   26.6060    6.4250 O   0  0  0  0  0  0  0  0  0  0  0  0
  -42.1250   32.4510    4.3370 N   0  0  0  0  0  4  0  0  0  0  0  0
  -41.3730   31.1180    4.4420 C   0  0  1  0  0  3  0  0  0  0  0  0
  -42.1790   29.9800    4.9880 C   0  0  0  0  0  0  0  0  0  0  0  0
  -43.6100   32.2570    4.1280 C   0  0  0  0  0  2  0  0  0  0  0  0
  -43.5180   30.0880    5.3400 C   0  0  0  0  0  0  0  0  0  0  0  0
  -44.2350   31.3960    5.2150 C   0  0  0  0  0  2  0  0  0  0  0  0
  -41.4780   28.7570    5.1390 C   0  0  0  0  0  3  0  0  0  0  0  0
  -41.8630   33.2890    5.5530 C   0  0  0  0  0  1  0  0  0  0  0  0
  -44.2480   28.9870    5.8450 C   0  0  0  0  0  3  0  0  0  0  0  0
  -42.1940   27.6940    5.6200 C   0  0  0  0  0  0  0  0  0  0  0  0
  -43.5660   27.8070    5.9680 C   0  0  0  0  0  0  0  0  0  0  0  0
  -42.9090   25.6970    6.3440 C   0  0  0  0  0  2  0  0  0  0  0  0
  -41.7440   32.9710    3.4660 H   0  0  0  0  0  0  0  0  0  0  0  0
  -40.7530   30.7660    3.0310 C   0  0  2  0  0  3  0  0  0  0  0  0
  -39.9590   31.8960    2.7010 O   0  0  0  0  0  0  0  0  0  0  0  0
  -40.5800   32.6290    1.6150 C   0  0  0  0  0  0  0  0  0  0  0  0
  -40.0240   33.6480    1.3160 O   0  0  0  0  0  0  0  0  0  0  0  0
  -41.7630   31.9210    1.2670 C   0  0  0  0  0  0  0  0  0  0  0  0
  -41.7920   30.6480    1.9630 C   0  0  0  0  0  0  0  0  0  0  0  0
  -42.7530   32.0570    0.2910 C   0  0  0  0  0  0  0  0  0  0  0  0
  -42.6310   29.6050    1.6400 C   0  0  0  0  0  3  0  0  0  0  0  0
  -43.6220   29.7780    0.6550 C   0  0  0  0  0  3  0  0  0  0  0  0
  -43.6460   31.0240    0.0280 C   0  0  0  0  0  0  0  0  0  0  0  0
  -44.5650   31.4190   -0.9280 O   0  0  0  0  0  0  0  0  0  0  0  0
  -44.1950   32.7720   -1.2580 C   0  0  0  0  0  2  0  0  0  0  0  0
  -43.0490   33.1650   -0.4710 O   0  0  0  0  0  0  0  0  0  0  0  0
  1 14  1  0  0  0  0
  3  4  1  0  0  0  0
  3 10  1  0  0  0  0
  4  5  1  6  0  0  0
  5  9  2  0  0  0  0
  5  7  1  0  0  0  0
  6  3  1  0  0  0  0
  6  8  1  0  0  0  0
  7 11  2  0  0  0  0
  8  7  1  0  0  0  0
  9 12  1  0  0  0  0
 11 13  1  0  0  0  0
 12  1  1  0  0  0  0
 12 13  2  0  0  0  0
 13  2  1  0  0  0  0
 14  2  1  0  0  0  0
 15  3  1  0  0  0  0
 16 21  1  6  0  0  0
 16  4  1  0  0  0  0
 17 16  1  0  0  0  0
 18 17  1  0  0  0  0
 19 18  2  0  0  0  0
 20 18  1  0  0  0  0
 20 21  1  0  0  0  0
 22 20  2  0  0  0  0
 23 21  2  0  0  0  0
 24 23  1  0  0  0  0
 25 22  1  0  0  0  0
 25 24  2  0  0  0  0
 26 25  1  0  0  0  0
 27 26  1  0  0  0  0
 27 28  1  0  0  0  0
 28 22  1  0  0  0  0
M  END
>  <MODEL>
4

>  <REMARK>
 VINA RESULT:    -8.526     20.722     22.478
 INTER + INTRA:          -8.788
 INTER:                  -8.420
 INTRA:                  -0.369
 UNBOUND:                 0.237
  1 active torsions:
  status: ('A' for Active; 'I' for Inactive)
    1  A    between atoms: C1_8  and  C2_9 

>  <TORSDO>
F 1

$$$$
./Bicuculina.pdbqt
 OpenBabel10282519553D

 28 33  0  0  1  0  0  0  0  0999 V2000
  -31.3270   20.4280  -14.6770 O   0  0  0  0  0  0  0  0  0  0  0  0
  -30.9740   21.9610  -12.9160 O   0  0  0  0  0  0  0  0  0  0  0  0
  -36.9320   23.0930  -15.2400 N   0  0  0  0  0  4  0  0  0  0  0  0
  -35.8790   22.0450  -15.6210 C   0  0  1  0  0  3  0  0  0  0  0  0
  -34.6050   22.1150  -14.8380 C   0  0  0  0  0  0  0  0  0  0  0  0
  -36.8220   23.5160  -13.7930 C   0  0  0  0  0  2  0  0  0  0  0  0
  -34.3850   23.0260  -13.8110 C   0  0  0  0  0  0  0  0  0  0  0  0
  -35.4330   24.0300  -13.4480 C   0  0  0  0  0  2  0  0  0  0  0  0
  -33.6050   21.1850  -15.2190 C   0  0  0  0  0  3  0  0  0  0  0  0
  -36.8310   24.2810  -16.1510 C   0  0  0  0  0  1  0  0  0  0  0  0
  -33.1700   23.0560  -13.0890 C   0  0  0  0  0  3  0  0  0  0  0  0
  -32.4350   21.2150  -14.5070 C   0  0  0  0  0  0  0  0  0  0  0  0
  -32.2200   22.1400  -13.4530 C   0  0  0  0  0  0  0  0  0  0  0  0
  -30.3900   20.8640  -13.6630 C   0  0  0  0  0  2  0  0  0  0  0  0
  -37.9060   22.6370  -15.3680 H   0  0  0  0  0  0  0  0  0  0  0  0
  -36.5330   20.6070  -15.5370 C   0  0  2  0  0  3  0  0  0  0  0  0
  -36.2920   20.0330  -16.8130 O   0  0  0  0  0  0  0  0  0  0  0  0
  -37.5380   19.9390  -17.5480 C   0  0  0  0  0  0  0  0  0  0  0  0
  -37.4270   19.5390  -18.6730 O   0  0  0  0  0  0  0  0  0  0  0  0
  -38.5560   20.4460  -16.6950 C   0  0  0  0  0  0  0  0  0  0  0  0
  -38.0160   20.6630  -15.3660 C   0  0  0  0  0  0  0  0  0  0  0  0
  -39.9450   20.5750  -16.7720 C   0  0  0  0  0  0  0  0  0  0  0  0
  -38.7820   20.8660  -14.2400 C   0  0  0  0  0  3  0  0  0  0  0  0
  -40.1800   20.9970  -14.3530 C   0  0  0  0  0  3  0  0  0  0  0  0
  -40.7020   20.8590  -15.6390 C   0  0  0  0  0  0  0  0  0  0  0  0
  -42.0350   21.0000  -15.9780 O   0  0  0  0  0  0  0  0  0  0  0  0
  -42.0780   20.7840  -17.4030 C   0  0  0  0  0  2  0  0  0  0  0  0
  -40.7430   20.5240  -17.8930 O   0  0  0  0  0  0  0  0  0  0  0  0
  1 12  1  0  0  0  0
  1 14  1  0  0  0  0
  3  6  1  0  0  0  0
  4 16  1  0  0  0  0
  4  3  1  0  0  0  0
  4  5  1  1  0  0  0
  5  7  1  0  0  0  0
  6  8  1  0  0  0  0
  7  8  1  0  0  0  0
  7 11  2  0  0  0  0
  9  5  2  0  0  0  0
  9 12  1  0  0  0  0
 10  3  1  0  0  0  0
 12 13  2  0  0  0  0
 13 11  1  0  0  0  0
 13  2  1  0  0  0  0
 14  2  1  0  0  0  0
 15  3  1  0  0  0  0
 16 17  1  6  0  0  0
 16 21  1  0  0  0  0
 18 17  1  0  0  0  0
 18 20  1  0  0  0  0
 19 18  2  0  0  0  0
 20 21  1  0  0  0  0
 21 23  2  0  0  0  0
 22 20  2  0  0  0  0
 22 25  1  0  0  0  0
 24 23  1  0  0  0  0
 25 24  2  0  0  0  0
 26 25  1  0  0  0  0
 27 26  1  0  0  0  0
 28 27  1  0  0  0  0
 28 22  1  0  0  0  0
M  END
>  <MODEL>
5

>  <REMARK>
 VINA RESULT:    -8.444      3.457      5.127
 INTER + INTRA:          -8.701
 INTER:                  -8.621
 INTRA:                  -0.080
 UNBOUND:                 0.237
  1 active torsions:
  status: ('A' for Active; 'I' for Inactive)
    1  A    between atoms: C1_8  and  C2_9 

>  <TORSDO>
F 1

$$$$
./Bicuculina.pdbqt
 OpenBabel10282519553D

 28 33  0  0  1  0  0  0  0  0999 V2000
  -47.9120   31.7410    4.8430 O   0  0  0  0  0  0  0  0  0  0  0  0
  -47.5970   29.4730    5.4210 O   0  0  0  0  0  0  0  0  0  0  0  0
  -42.9130   31.0110    1.1940 N   0  0  0  0  0  4  0  0  0  0  0  0
  -44.0290   31.8570    1.8190 C   0  0  1  0  0  3  0  0  0  0  0  0
  -44.9260   31.1190    2.7640 C   0  0  0  0  0  0  0  0  0  0  0  0
  -42.4840   29.8730    2.0910 C   0  0  0  0  0  2  0  0  0  0  0  0
  -44.7560   29.7800    3.0960 C   0  0  0  0  0  0  0  0  0  0  0  0
  -43.6500   28.9790    2.4830 C   0  0  0  0  0  2  0  0  0  0  0  0
  -45.9940   31.8780    3.3060 C   0  0  0  0  0  3  0  0  0  0  0  0
  -43.3440   30.4980   -0.1480 C   0  0  0  0  0  1  0  0  0  0  0  0
  -45.6210   29.1200    3.9990 C   0  0  0  0  0  3  0  0  0  0  0  0
  -46.8200   31.2340    4.1880 C   0  0  0  0  0  0  0  0  0  0  0  0
  -46.6350   29.8690    4.5310 C   0  0  0  0  0  0  0  0  0  0  0  0
  -48.4110   30.6500    5.6530 C   0  0  0  0  0  2  0  0  0  0  0  0
  -42.0520   31.6560    1.0600 H   0  0  0  0  0  0  0  0  0  0  0  0
  -43.3860   33.1290    2.5040 C   0  0  2  0  0  3  0  0  0  0  0  0
  -42.5140   33.6600    1.5170 O   0  0  0  0  0  0  0  0  0  0  0  0
  -41.1370   33.4460    1.9180 C   0  0  0  0  0  0  0  0  0  0  0  0
  -40.3210   33.7890    1.1100 O   0  0  0  0  0  0  0  0  0  0  0  0
  -41.1740   32.7930    3.1800 C   0  0  0  0  0  0  0  0  0  0  0  0
  -42.5360   32.7760    3.6810 C   0  0  0  0  0  0  0  0  0  0  0  0
  -40.2220   32.3720    4.1110 C   0  0  0  0  0  0  0  0  0  0  0  0
  -42.8820   32.4890    4.9830 C   0  0  0  0  0  3  0  0  0  0  0  0
  -41.8970   32.0630    5.8950 C   0  0  0  0  0  3  0  0  0  0  0  0
  -40.5930   32.0090    5.4020 C   0  0  0  0  0  0  0  0  0  0  0  0
  -39.4890   31.5720    6.1120 O   0  0  0  0  0  0  0  0  0  0  0  0
  -38.3890   31.6850    5.1880 C   0  0  0  0  0  2  0  0  0  0  0  0
  -38.8710   32.1870    3.9210 O   0  0  0  0  0  0  0  0  0  0  0  0
  1 14  1  0  0  0  0
  2 14  1  0  0  0  0
  3  4  1  0  0  0  0
  3  6  1  0  0  0  0
  4 16  1  0  0  0  0
  4  5  1  1  0  0  0
  5  7  2  0  0  0  0
  5  9  1  0  0  0  0
  6  8  1  0  0  0  0
  7 11  1  0  0  0  0
  8  7  1  0  0  0  0
  9 12  2  0  0  0  0
 10  3  1  0  0  0  0
 11 13  2  0  0  0  0
 12 13  1  0  0  0  0
 12  1  1  0  0  0  0
 13  2  1  0  0  0  0
 15  3  1  0  0  0  0
 16 17  1  6  0  0  0
 16 21  1  0  0  0  0
 17 18  1  0  0  0  0
 18 20  1  0  0  0  0
 19 18  2  0  0  0  0
 20 21  2  0  0  0  0
 20 22  1  0  0  0  0
 21 23  1  0  0  0  0
 22 25  2  0  0  0  0
 23 24  2  0  0  0  0
 25 24  1  0  0  0  0
 25 26  1  0  0  0  0
 27 26  1  0  0  0  0
 28 22  1  0  0  0  0
 28 27  1  0  0  0  0
M  END
>  <MODEL>
6

>  <REMARK>
 VINA RESULT:    -8.425     20.459     23.714
 INTER + INTRA:          -8.681
 INTER:                  -8.368
 INTRA:                  -0.313
 UNBOUND:                 0.237
  1 active torsions:
  status: ('A' for Active; 'I' for Inactive)
    1  A    between atoms: C1_8  and  C2_9 

>  <TORSDO>
F 1

$$$$
./Bicuculina.pdbqt
 OpenBabel10282519553D

 28 33  0  0  1  0  0  0  0  0999 V2000
  -34.5180   17.9570  -19.5750 O   0  0  0  0  0  0  0  0  0  0  0  0
  -32.6170   18.8280  -20.6740 O   0  0  0  0  0  0  0  0  0  0  0  0
  -34.9680   23.5770  -16.9190 N   0  0  0  0  0  4  0  0  0  0  0  0
  -35.4180   22.1240  -17.1130 C   0  0  1  0  0  3  0  0  0  0  0  0
  -34.6010   21.3350  -18.0890 C   0  0  0  0  0  0  0  0  0  0  0  0
  -33.4860   23.7550  -17.1590 C   0  0  0  0  0  2  0  0  0  0  0  0
  -33.4920   21.8450  -18.7510 C   0  0  0  0  0  0  0  0  0  0  0  0
  -33.0630   23.2630  -18.5350 C   0  0  0  0  0  2  0  0  0  0  0  0
  -35.0420   20.0060  -18.3160 C   0  0  0  0  0  3  0  0  0  0  0  0
  -35.7640   24.4870  -17.8070 C   0  0  0  0  0  1  0  0  0  0  0  0
  -32.7410   21.0660  -19.6610 C   0  0  0  0  0  3  0  0  0  0  0  0
  -34.3030   19.2550  -19.1910 C   0  0  0  0  0  0  0  0  0  0  0  0
  -33.1640   19.7790  -19.8560 C   0  0  0  0  0  0  0  0  0  0  0  0
  -33.4470   17.6510  -20.5000 C   0  0  0  0  0  2  0  0  0  0  0  0
  -35.1600   23.8420  -15.8860 H   0  0  0  0  0  0  0  0  0  0  0  0
  -35.4800   21.4130  -15.7020 C   0  0  2  0  0  3  0  0  0  0  0  0
  -36.4030   22.1920  -14.9540 O   0  0  0  0  0  0  0  0  0  0  0  0
  -35.6960   22.9270  -13.9230 C   0  0  0  0  0  0  0  0  0  0  0  0
  -36.3790   23.6790  -13.2860 O   0  0  0  0  0  0  0  0  0  0  0  0
  -34.3240   22.5730  -14.0350 C   0  0  0  0  0  0  0  0  0  0  0  0
  -34.1780   21.4750  -14.9720 C   0  0  0  0  0  0  0  0  0  0  0  0
  -33.1590   22.8730  -13.3250 C   0  0  0  0  0  0  0  0  0  0  0  0
  -33.0440   20.7040  -15.0950 C   0  0  0  0  0  3  0  0  0  0  0  0
  -31.8840   21.0370  -14.3690 C   0  0  0  0  0  3  0  0  0  0  0  0
  -31.9940   22.1350  -13.5160 C   0  0  0  0  0  0  0  0  0  0  0  0
  -30.9660   22.6590  -12.7530 O   0  0  0  0  0  0  0  0  0  0  0  0
  -31.5550   23.7780  -12.0610 C   0  0  0  0  0  2  0  0  0  0  0  0
  -32.9430   23.9060  -12.4400 O   0  0  0  0  0  0  0  0  0  0  0  0
  1 12  1  0  0  0  0
  2 14  1  0  0  0  0
  2 13  1  0  0  0  0
  3 15  1  0  0  0  0
  4  5  1  6  0  0  0
  4  3  1  0  0  0  0
  4 16  1  0  0  0  0
  6  3  1  0  0  0  0
  7  8  1  0  0  0  0
  7  5  2  0  0  0  0
  8  6  1  0  0  0  0
  9  5  1  0  0  0  0
 10  3  1  0  0  0  0
 11  7  1  0  0  0  0
 12  9  2  0  0  0  0
 13 11  2  0  0  0  0
 13 12  1  0  0  0  0
 14  1  1  0  0  0  0
 16 21  1  1  0  0  0
 16 17  1  0  0  0  0
 17 18  1  0  0  0  0
 18 19  2  0  0  0  0
 20 18  1  0  0  0  0
 20 22  1  0  0  0  0
 21 20  2  0  0  0  0
 22 28  1  0  0  0  0
 23 21  1  0  0  0  0
 23 24  2  0  0  0  0
 24 25  1  0  0  0  0
 25 22  2  0  0  0  0
 25 26  1  0  0  0  0
 26 27  1  0  0  0  0
 28 27  1  0  0  0  0
M  END
>  <MODEL>
7

>  <REMARK>
 VINA RESULT:    -8.406      2.010      6.947
 INTER + INTRA:          -8.661
 INTER:                  -8.292
 INTRA:                  -0.369
 UNBOUND:                 0.237
  1 active torsions:
  status: ('A' for Active; 'I' for Inactive)
    1  A    between atoms: C1_8  and  C2_9 

>  <TORSDO>
F 1

$$$$
./Bicuculina.pdbqt
 OpenBabel10282519553D

 28 33  0  0  1  0  0  0  0  0999 V2000
  -38.6160   19.9240  -18.1580 O   0  0  0  0  0  0  0  0  0  0  0  0
  -37.6210   18.8200  -19.9930 O   0  0  0  0  0  0  0  0  0  0  0  0
  -32.8970   22.1020  -16.9790 N   0  0  0  0  0  4  0  0  0  0  0  0
  -34.3860   21.9410  -16.6500 C   0  0  1  0  0  3  0  0  0  0  0  0
  -35.1570   21.0900  -17.6100 C   0  0  0  0  0  0  0  0  0  0  0  0
  -32.3420   20.9100  -17.7240 C   0  0  0  0  0  2  0  0  0  0  0  0
  -34.5810   20.4510  -18.7020 C   0  0  0  0  0  0  0  0  0  0  0  0
  -33.1220   20.6120  -18.9940 C   0  0  0  0  0  2  0  0  0  0  0  0
  -36.5450   20.9780  -17.3450 C   0  0  0  0  0  3  0  0  0  0  0  0
  -32.6740   23.3660  -17.7550 C   0  0  0  0  0  1  0  0  0  0  0  0
  -35.3410   19.6480  -19.5830 C   0  0  0  0  0  3  0  0  0  0  0  0
  -37.2720   20.1910  -18.1980 C   0  0  0  0  0  0  0  0  0  0  0  0
  -36.6760   19.5320  -19.3050 C   0  0  0  0  0  0  0  0  0  0  0  0
  -38.8620   19.0350  -19.2740 C   0  0  0  0  0  2  0  0  0  0  0  0
  -32.3620   22.1720  -16.0390 H   0  0  0  0  0  0  0  0  0  0  0  0
  -34.5290   21.4150  -15.1650 C   0  0  2  0  0  3  0  0  0  0  0  0
  -35.4380   22.3200  -14.5550 O   0  0  0  0  0  0  0  0  0  0  0  0
  -34.7320   23.1470  -13.5950 C   0  0  0  0  0  0  0  0  0  0  0  0
  -35.4000   24.0000  -13.0830 O   0  0  0  0  0  0  0  0  0  0  0  0
  -33.3760   22.7230  -13.6090 C   0  0  0  0  0  0  0  0  0  0  0  0
  -33.2510   21.5110  -14.3990 C   0  0  0  0  0  0  0  0  0  0  0  0
  -32.2220   23.0580  -12.8970 C   0  0  0  0  0  0  0  0  0  0  0  0
  -32.1510   20.6830  -14.3810 C   0  0  0  0  0  3  0  0  0  0  0  0
  -31.0020   21.0540  -13.6570 C   0  0  0  0  0  3  0  0  0  0  0  0
  -31.0880   22.2530  -12.9500 C   0  0  0  0  0  0  0  0  0  0  0  0
  -30.0620   22.8230  -12.2170 O   0  0  0  0  0  0  0  0  0  0  0  0
  -30.6200   24.0440  -11.6910 C   0  0  0  0  0  2  0  0  0  0  0  0
  -31.9870   24.1830  -12.1380 O   0  0  0  0  0  0  0  0  0  0  0  0
  2 13  1  0  0  0  0
  2 14  1  0  0  0  0
  3  4  1  0  0  0  0
  3 15  1  0  0  0  0
  4  5  1  6  0  0  0
  4 16  1  0  0  0  0
  5  9  1  0  0  0  0
  6  3  1  0  0  0  0
  7  5  2  0  0  0  0
  8  7  1  0  0  0  0
  8  6  1  0  0  0  0
 10  3  1  0  0  0  0
 11 13  2  0  0  0  0
 11  7  1  0  0  0  0
 12  1  1  0  0  0  0
 12  9  2  0  0  0  0
 13 12  1  0  0  0  0
 14  1  1  0  0  0  0
 16 17  1  1  0  0  0
 16 21  1  0  0  0  0
 17 18  1  0  0  0  0
 18 19  2  0  0  0  0
 20 18  1  0  0  0  0
 20 22  1  0  0  0  0
 21 23  1  0  0  0  0
 21 20  2  0  0  0  0
 22 28  1  0  0  0  0
 23 24  2  0  0  0  0
 24 25  1  0  0  0  0
 25 22  2  0  0  0  0
 25 26  1  0  0  0  0
 26 27  1  0  0  0  0
 28 27  1  0  0  0  0
M  END
>  <MODEL>
8

>  <REMARK>
 VINA RESULT:    -8.375      2.327      7.275
 INTER + INTRA:          -8.627
 INTER:                  -8.546
 INTRA:                  -0.081
 UNBOUND:                 0.237
  1 active torsions:
  status: ('A' for Active; 'I' for Inactive)
    1  A    between atoms: C1_8  and  C2_9 

>  <TORSDO>
F 1

$$$$
./Bicuculina.pdbqt
 OpenBabel10282519553D

 28 33  0  0  1  0  0  0  0  0999 V2000
  -45.4770   27.7380    7.7980 O   0  0  0  0  0  0  0  0  0  0  0  0
  -43.9700   25.9210    7.7280 O   0  0  0  0  0  0  0  0  0  0  0  0
  -42.6260   29.6870    2.6110 N   0  0  0  0  0  4  0  0  0  0  0  0
  -43.6470   29.8470    3.7440 C   0  0  1  0  0  3  0  0  0  0  0  0
  -43.6500   28.7390    4.7520 C   0  0  0  0  0  0  0  0  0  0  0  0
  -41.4100   28.8980    3.0400 C   0  0  0  0  0  2  0  0  0  0  0  0
  -42.7770   27.6590    4.7080 C   0  0  0  0  0  0  0  0  0  0  0  0
  -41.7790   27.5330    3.5990 C   0  0  0  0  0  2  0  0  0  0  0  0
  -44.6260   28.8500    5.7740 C   0  0  0  0  0  3  0  0  0  0  0  0
  -43.2760   29.0560    1.4160 C   0  0  0  0  0  1  0  0  0  0  0  0
  -42.8050   26.6360    5.6830 C   0  0  0  0  0  3  0  0  0  0  0  0
  -44.6410   27.8600    6.7200 C   0  0  0  0  0  0  0  0  0  0  0  0
  -43.7390   26.7640    6.6750 C   0  0  0  0  0  0  0  0  0  0  0  0
  -45.0580   26.5270    8.4720 C   0  0  0  0  0  2  0  0  0  0  0  0
  -42.2850   30.6790    2.3390 H   0  0  0  0  0  0  0  0  0  0  0  0
  -43.4340   31.2550    4.4320 C   0  0  2  0  0  3  0  0  0  0  0  0
  -44.0580   32.1780    3.5500 O   0  0  0  0  0  0  0  0  0  0  0  0
  -43.0460   32.9790    2.8880 C   0  0  0  0  0  0  0  0  0  0  0  0
  -43.4700   33.7360    2.0610 O   0  0  0  0  0  0  0  0  0  0  0  0
  -41.7890   32.5490    3.3920 C   0  0  0  0  0  0  0  0  0  0  0  0
  -41.9930   31.6430    4.5080 C   0  0  0  0  0  0  0  0  0  0  0  0
  -40.4600   32.9420    3.2170 C   0  0  0  0  0  0  0  0  0  0  0  0
  -41.0110   31.2750    5.4000 C   0  0  0  0  0  3  0  0  0  0  0  0
  -39.6800   31.6850    5.1900 C   0  0  0  0  0  3  0  0  0  0  0  0
  -39.4620   32.5000    4.0800 C   0  0  0  0  0  0  0  0  0  0  0  0
  -38.2290   32.9710    3.6660 O   0  0  0  0  0  0  0  0  0  0  0  0
  -38.5090   33.7460    2.4830 C   0  0  0  0  0  2  0  0  0  0  0  0
  -39.9270   33.7110    2.2070 O   0  0  0  0  0  0  0  0  0  0  0  0
  1 14  1  0  0  0  0
  2 14  1  0  0  0  0
  3  6  1  0  0  0  0
  3  4  1  0  0  0  0
  4 16  1  0  0  0  0
  4  5  1  1  0  0  0
  5  9  1  0  0  0  0
  6  8  1  0  0  0  0
  7  5  2  0  0  0  0
  7 11  1  0  0  0  0
  8  7  1  0  0  0  0
  9 12  2  0  0  0  0
 10  3  1  0  0  0  0
 11 13  2  0  0  0  0
 12  1  1  0  0  0  0
 13 12  1  0  0  0  0
 13  2  1  0  0  0  0
 15  3  1  0  0  0  0
 16 17  1  6  0  0  0
 16 21  1  0  0  0  0
 18 20  1  0  0  0  0
 18 17  1  0  0  0  0
 19 18  2  0  0  0  0
 20 21  1  0  0  0  0
 21 23  2  0  0  0  0
 22 20  2  0  0  0  0
 22 25  1  0  0  0  0
 24 23  1  0  0  0  0
 25 24  2  0  0  0  0
 26 25  1  0  0  0  0
 27 26  1  0  0  0  0
 28 27  1  0  0  0  0
 28 22  1  0  0  0  0
M  END
>  <MODEL>
9

>  <REMARK>
 VINA RESULT:    -8.306     21.083     23.615
 INTER + INTRA:          -8.554
 INTER:                  -8.271
 INTRA:                  -0.284
 UNBOUND:                 0.237
  1 active torsions:
  status: ('A' for Active; 'I' for Inactive)
    1  A    between atoms: C1_8  and  C2_9 

>  <TORSDO>
F 1

$$$$
./Bicuculina.pdbqt
 OpenBabel10282519553D

 28 33  0  0  1  0  0  0  0  0999 V2000
   -8.3740   38.4110    8.6340 O   0  0  0  0  0  0  0  0  0  0  0  0
   -6.9630   40.2270    9.1720 O   0  0  0  0  0  0  0  0  0  0  0  0
   -3.4750   34.8120   10.0110 N   0  0  0  0  0  4  0  0  0  0  0  0
   -4.9120   35.0240    9.5180 C   0  0  1  0  0  3  0  0  0  0  0  0
   -5.3580   36.4530    9.4680 C   0  0  0  0  0  0  0  0  0  0  0  0
   -2.5830   35.9920    9.7010 C   0  0  0  0  0  2  0  0  0  0  0  0
   -4.5390   37.5250    9.7990 C   0  0  0  0  0  0  0  0  0  0  0  0
   -3.1350   37.2930   10.2640 C   0  0  0  0  0  2  0  0  0  0  0  0
   -6.7030   36.6560    9.0660 C   0  0  0  0  0  3  0  0  0  0  0  0
   -3.4720   34.5130   11.4810 C   0  0  0  0  0  1  0  0  0  0  0  0
   -4.9940   38.8620    9.7320 C   0  0  0  0  0  3  0  0  0  0  0  0
   -7.1330   37.9540    8.9940 C   0  0  0  0  0  0  0  0  0  0  0  0
   -6.2870   39.0460    9.3230 C   0  0  0  0  0  0  0  0  0  0  0  0
   -8.2880   39.8540    8.7160 C   0  0  0  0  0  2  0  0  0  0  0  0
   -3.0730   33.9570    9.4800 H   0  0  0  0  0  0  0  0  0  0  0  0
   -5.0840   34.3140    8.1160 C   0  0  2  0  0  3  0  0  0  0  0  0
   -5.1390   32.9290    8.4250 O   0  0  0  0  0  0  0  0  0  0  0  0
   -3.9240   32.2800    7.9710 C   0  0  0  0  0  0  0  0  0  0  0  0
   -3.8390   31.1190    8.2590 O   0  0  0  0  0  0  0  0  0  0  0  0
   -3.1270   33.2850    7.3580 C   0  0  0  0  0  0  0  0  0  0  0  0
   -3.8990   34.5080    7.2280 C   0  0  0  0  0  0  0  0  0  0  0  0
   -1.9040   33.3110    6.6850 C   0  0  0  0  0  0  0  0  0  0  0  0
   -3.5410   35.5700    6.4290 C   0  0  0  0  0  3  0  0  0  0  0  0
   -2.2970   35.5670    5.7680 C   0  0  0  0  0  3  0  0  0  0  0  0
   -1.5180   34.4240    5.9440 C   0  0  0  0  0  0  0  0  0  0  0  0
   -0.2480   34.2360    5.4260 O   0  0  0  0  0  0  0  0  0  0  0  0
    0.1470   32.9280    5.8850 C   0  0  0  0  0  2  0  0  0  0  0  0
   -0.9100   32.3580    6.6890 O   0  0  0  0  0  0  0  0  0  0  0  0
  1 14  1  0  0  0  0
  1 12  1  0  0  0  0
  2 13  1  0  0  0  0
  3 10  1  0  0  0  0
  4  5  1  6  0  0  0
  4  3  1  0  0  0  0
  5  7  1  0  0  0  0
  6  3  1  0  0  0  0
  6  8  1  0  0  0  0
  7  8  1  0  0  0  0
  9  5  2  0  0  0  0
 11  7  2  0  0  0  0
 12  9  1  0  0  0  0
 12 13  2  0  0  0  0
 13 11  1  0  0  0  0
 14  2  1  0  0  0  0
 15  3  1  0  0  0  0
 16 21  1  6  0  0  0
 16 17  1  0  0  0  0
 16  4  1  0  0  0  0
 18 19  2  0  0  0  0
 18 17  1  0  0  0  0
 20 18  1  0  0  0  0
 21 20  1  0  0  0  0
 22 28  1  0  0  0  0
 22 20  2  0  0  0  0
 23 21  2  0  0  0  0
 24 25  2  0  0  0  0
 24 23  1  0  0  0  0
 25 22  1  0  0  0  0
 26 27  1  0  0  0  0
 26 25  1  0  0  0  0
 27 28  1  0  0  0  0
M  END
>  <MODEL>
10

>  <REMARK>
 VINA RESULT:    -8.110     39.089     40.341
 INTER + INTRA:          -8.348
 INTER:                  -8.027
 INTRA:                  -0.320
 UNBOUND:                 0.237
  1 active torsions:
  status: ('A' for Active; 'I' for Inactive)
    1  A    between atoms: C1_8  and  C2_9 

>  <TORSDO>
F 1

$$$$
./Bicuculina.pdbqt
 OpenBabel10282519553D

 28 33  0  0  1  0  0  0  0  0999 V2000
  -45.1590   27.5400   -1.6070 O   0  0  0  0  0  0  0  0  0  0  0  0
  -45.8220   29.2640   -3.0790 O   0  0  0  0  0  0  0  0  0  0  0  0
  -42.9050   32.1150    1.9740 N   0  0  0  0  0  4  0  0  0  0  0  0
  -43.1400   30.6360    1.6440 C   0  0  1  0  0  3  0  0  0  0  0  0
  -43.8680   30.3830    0.3610 C   0  0  0  0  0  0  0  0  0  0  0  0
  -42.8020   32.9710    0.7330 C   0  0  0  0  0  2  0  0  0  0  0  0
  -44.2750   31.3930   -0.5020 C   0  0  0  0  0  0  0  0  0  0  0  0
  -44.0220   32.8290   -0.1650 C   0  0  0  0  0  2  0  0  0  0  0  0
  -44.1380   29.0210    0.0720 C   0  0  0  0  0  3  0  0  0  0  0  0
  -43.9880   32.6200    2.8810 C   0  0  0  0  0  1  0  0  0  0  0  0
  -44.9550   31.1150   -1.7110 C   0  0  0  0  0  3  0  0  0  0  0  0
  -44.7880   28.7590   -1.1040 C   0  0  0  0  0  0  0  0  0  0  0  0
  -45.1910   29.7950   -1.9870 C   0  0  0  0  0  0  0  0  0  0  0  0
  -45.7980   27.8280   -2.8740 C   0  0  0  0  0  2  0  0  0  0  0  0
  -41.9560   32.1850    2.4920 H   0  0  0  0  0  0  0  0  0  0  0  0
  -41.7540   29.8750    1.6830 C   0  0  2  0  0  3  0  0  0  0  0  0
  -41.9570   28.8160    2.6070 O   0  0  0  0  0  0  0  0  0  0  0  0
  -41.2070   29.0770    3.8210 C   0  0  0  0  0  0  0  0  0  0  0  0
  -41.3770   28.2770    4.6960 O   0  0  0  0  0  0  0  0  0  0  0  0
  -40.5210   30.3060    3.6210 C   0  0  0  0  0  0  0  0  0  0  0  0
  -40.6530   30.7200    2.2370 C   0  0  0  0  0  0  0  0  0  0  0  0
  -39.6080   31.0660    4.3560 C   0  0  0  0  0  0  0  0  0  0  0  0
  -39.8830   31.6930    1.6400 C   0  0  0  0  0  3  0  0  0  0  0  0
  -38.9760   32.4450    2.4120 C   0  0  0  0  0  3  0  0  0  0  0  0
  -38.8920   32.1000    3.7600 C   0  0  0  0  0  0  0  0  0  0  0  0
  -38.1050   32.7400    4.7010 O   0  0  0  0  0  0  0  0  0  0  0  0
  -38.3650   32.0430    5.9350 C   0  0  0  0  0  2  0  0  0  0  0  0
  -39.3260   30.9890    5.7020 O   0  0  0  0  0  0  0  0  0  0  0  0
  1 12  1  0  0  0  0
  2 14  1  0  0  0  0
  2 13  1  0  0  0  0
  3 15  1  0  0  0  0
  3 10  1  0  0  0  0
  4  5  1  6  0  0  0
  4 16  1  0  0  0  0
  4  3  1  0  0  0  0
  6  3  1  0  0  0  0
  7  8  1  0  0  0  0
  7  5  2  0  0  0  0
  8  6  1  0  0  0  0
  9  5  1  0  0  0  0
 11  7  1  0  0  0  0
 12  9  2  0  0  0  0
 13 11  2  0  0  0  0
 13 12  1  0  0  0  0
 14  1  1  0  0  0  0
 16 21  1  1  0  0  0
 16 17  1  0  0  0  0
 17 18  1  0  0  0  0
 18 19  2  0  0  0  0
 20 18  1  0  0  0  0
 20 22  1  0  0  0  0
 21 20  2  0  0  0  0
 22 28  1  0  0  0  0
 23 21  1  0  0  0  0
 23 24  2  0  0  0  0
 24 25  1  0  0  0  0
 25 22  2  0  0  0  0
 25 26  1  0  0  0  0
 26 27  1  0  0  0  0
 28 27  1  0  0  0  0
M  END
>  <MODEL>
11

>  <REMARK>
 VINA RESULT:    -7.994     18.810     21.743
 INTER + INTRA:          -8.225
 INTER:                  -8.148
 INTRA:                  -0.076
 UNBOUND:                 0.237
  1 active torsions:
  status: ('A' for Active; 'I' for Inactive)
    1  A    between atoms: C1_8  and  C2_9 

>  <TORSDO>
F 1

$$$$
./Bicuculina.pdbqt
 OpenBabel10282519553D

 28 33  0  0  1  0  0  0  0  0999 V2000
  -39.1290   31.2120    3.6810 O   0  0  0  0  0  0  0  0  0  0  0  0
  -40.4620   32.7740    2.5140 O   0  0  0  0  0  0  0  0  0  0  0  0
  -43.5060   27.0490    2.1470 N   0  0  0  0  0  4  0  0  0  0  0  0
  -42.2110   27.4630    2.8570 C   0  0  1  0  0  3  0  0  0  0  0  0
  -41.8350   28.9030    2.6970 C   0  0  0  0  0  0  0  0  0  0  0  0
  -44.4850   28.1950    2.0250 C   0  0  0  0  0  2  0  0  0  0  0  0
  -42.6060   29.8240    1.9980 C   0  0  0  0  0  0  0  0  0  0  0  0
  -43.8740   29.4000    1.3250 C   0  0  0  0  0  2  0  0  0  0  0  0
  -40.6120   29.2840    3.3040 C   0  0  0  0  0  3  0  0  0  0  0  0
  -43.1940   26.4700    0.7990 C   0  0  0  0  0  1  0  0  0  0  0  0
  -42.2220   31.1800    1.8750 C   0  0  0  0  0  3  0  0  0  0  0  0
  -40.2520   30.6000    3.1890 C   0  0  0  0  0  0  0  0  0  0  0  0
  -41.0490   31.5380    2.4820 C   0  0  0  0  0  0  0  0  0  0  0  0
  -39.2480   32.6010    3.2880 C   0  0  0  0  0  2  0  0  0  0  0  0
  -43.9790   26.2860    2.7540 H   0  0  0  0  0  0  0  0  0  0  0  0
  -42.3080   27.0550    4.3810 C   0  0  2  0  0  3  0  0  0  0  0  0
  -41.0390   26.4920    4.6790 O   0  0  0  0  0  0  0  0  0  0  0  0
  -41.1730   25.0610    4.8710 C   0  0  0  0  0  0  0  0  0  0  0  0
  -40.1400   24.4810    5.0490 O   0  0  0  0  0  0  0  0  0  0  0  0
  -42.5510   24.7530    4.7060 C   0  0  0  0  0  0  0  0  0  0  0  0
  -43.3190   25.9820    4.6230 C   0  0  0  0  0  0  0  0  0  0  0  0
  -43.3330   23.6010    4.8170 C   0  0  0  0  0  0  0  0  0  0  0  0
  -44.6880   26.0520    4.7540 C   0  0  0  0  0  3  0  0  0  0  0  0
  -45.4470   24.8710    4.8580 C   0  0  0  0  0  3  0  0  0  0  0  0
  -44.7210   23.6800    4.8690 C   0  0  0  0  0  0  0  0  0  0  0  0
  -45.2700   22.4110    4.9150 O   0  0  0  0  0  0  0  0  0  0  0  0
  -44.1380   21.5190    4.8920 C   0  0  0  0  0  2  0  0  0  0  0  0
  -42.9180   22.2880    4.8220 O   0  0  0  0  0  0  0  0  0  0  0  0
  2 14  1  0  0  0  0
  3 15  1  0  0  0  0
  3  4  1  0  0  0  0
  4  5  1  1  0  0  0
  4 16  1  0  0  0  0
  5  9  1  0  0  0  0
  6  3  1  0  0  0  0
  7  5  2  0  0  0  0
  8  7  1  0  0  0  0
  8  6  1  0  0  0  0
 10  3  1  0  0  0  0
 11  7  1  0  0  0  0
 11 13  2  0  0  0  0
 12  9  2  0  0  0  0
 12  1  1  0  0  0  0
 13  2  1  0  0  0  0
 13 12  1  0  0  0  0
 14  1  1  0  0  0  0
 16 21  1  6  0  0  0
 16 17  1  0  0  0  0
 17 18  1  0  0  0  0
 18 19  2  0  0  0  0
 20 22  1  0  0  0  0
 20 18  1  0  0  0  0
 21 20  2  0  0  0  0
 21 23  1  0  0  0  0
 22 28  1  0  0  0  0
 22 25  2  0  0  0  0
 23 24  2  0  0  0  0
 24 25  1  0  0  0  0
 25 26  1  0  0  0  0
 27 26  1  0  0  0  0
 28 27  1  0  0  0  0
M  END
>  <MODEL>
12

>  <REMARK>
 VINA RESULT:    -7.936     19.954     21.733
 INTER + INTRA:          -8.163
 INTER:                  -8.079
 INTRA:                  -0.084
 UNBOUND:                 0.237
  1 active torsions:
  status: ('A' for Active; 'I' for Inactive)
    1  A    between atoms: C1_8  and  C2_9 

>  <TORSDO>
F 1

$$$$
./Bicuculina.pdbqt
 OpenBabel10282519553D

 28 33  0  0  1  0  0  0  0  0999 V2000
  -44.2760   30.8790   -1.4590 O   0  0  0  0  0  0  0  0  0  0  0  0
  -44.5670   28.5790   -1.0080 O   0  0  0  0  0  0  0  0  0  0  0  0
  -40.7740   30.9600    3.6950 N   0  0  0  0  0  4  0  0  0  0  0  0
  -41.4570   31.6430    2.5030 C   0  0  1  0  0  3  0  0  0  0  0  0
  -42.2600   30.7300    1.6290 C   0  0  0  0  0  0  0  0  0  0  0  0
  -41.5320   29.7430    4.1720 C   0  0  0  0  0  2  0  0  0  0  0  0
  -42.4220   29.3730    1.8790 C   0  0  0  0  0  0  0  0  0  0  0  0
  -41.7570   28.7330    3.0570 C   0  0  0  0  0  2  0  0  0  0  0  0
  -42.8510   31.3410    0.4940 C   0  0  0  0  0  3  0  0  0  0  0  0
  -39.3600   30.6030    3.3440 C   0  0  0  0  0  1  0  0  0  0  0  0
  -43.1950   28.5450    1.0340 C   0  0  0  0  0  3  0  0  0  0  0  0
  -43.6070   30.5340   -0.3150 C   0  0  0  0  0  0  0  0  0  0  0  0
  -43.7770   29.1500   -0.0470 C   0  0  0  0  0  0  0  0  0  0  0  0
  -44.9160   29.6600   -1.9090 C   0  0  0  0  0  2  0  0  0  0  0  0
  -40.7610   31.6720    4.5130 H   0  0  0  0  0  0  0  0  0  0  0  0
  -42.3270   32.8510    3.0340 C   0  0  2  0  0  3  0  0  0  0  0  0
  -41.5670   33.3920    4.1040 O   0  0  0  0  0  0  0  0  0  0  0  0
  -42.2230   33.1020    5.3640 C   0  0  0  0  0  0  0  0  0  0  0  0
  -41.6160   33.4490    6.3370 O   0  0  0  0  0  0  0  0  0  0  0  0
  -43.4130   32.3890    5.0510 C   0  0  0  0  0  0  0  0  0  0  0  0
  -43.6290   32.4060    3.6160 C   0  0  0  0  0  0  0  0  0  0  0  0
  -44.4910   31.8840    5.7820 C   0  0  0  0  0  0  0  0  0  0  0  0
  -44.8170   32.0710    3.0050 C   0  0  0  0  0  3  0  0  0  0  0  0
  -45.8820   31.5590    3.7720 C   0  0  0  0  0  3  0  0  0  0  0  0
  -45.6580   31.4740    5.1450 C   0  0  0  0  0  0  0  0  0  0  0  0
  -46.5490   30.9570    6.0690 O   0  0  0  0  0  0  0  0  0  0  0  0
  -45.8720   31.0680    7.3360 C   0  0  0  0  0  2  0  0  0  0  0  0
  -44.5650   31.6510    7.1370 O   0  0  0  0  0  0  0  0  0  0  0  0
  1 12  1  0  0  0  0
  2 13  1  0  0  0  0
  3  6  1  0  0  0  0
  3 15  1  0  0  0  0
  4  5  1  1  0  0  0
  4 16  1  0  0  0  0
  4  3  1  0  0  0  0
  5  7  1  0  0  0  0
  7  8  1  0  0  0  0
  8  6  1  0  0  0  0
  9  5  2  0  0  0  0
 10  3  1  0  0  0  0
 11  7  2  0  0  0  0
 12 13  2  0  0  0  0
 12  9  1  0  0  0  0
 13 11  1  0  0  0  0
 14  1  1  0  0  0  0
 14  2  1  0  0  0  0
 16 21  1  1  0  0  0
 16 17  1  0  0  0  0
 17 18  1  0  0  0  0
 18 19  2  0  0  0  0
 20 18  1  0  0  0  0
 20 22  1  0  0  0  0
 21 20  2  0  0  0  0
 22 28  1  0  0  0  0
 23 21  1  0  0  0  0
 23 24  2  0  0  0  0
 24 25  1  0  0  0  0
 25 22  2  0  0  0  0
 25 26  1  0  0  0  0
 26 27  1  0  0  0  0
 28 27  1  0  0  0  0
M  END
>  <MODEL>
13

>  <REMARK>
 VINA RESULT:    -7.878     19.498     23.496
 INTER + INTRA:          -8.102
 INTER:                  -8.024
 INTRA:                  -0.078
 UNBOUND:                 0.237
  1 active torsions:
  status: ('A' for Active; 'I' for Inactive)
    1  A    between atoms: C1_8  and  C2_9 

>  <TORSDO>
F 1

$$$$
./Bicuculina.pdbqt
 OpenBabel10282519553D

 28 33  0  0  1  0  0  0  0  0999 V2000
  -45.9220   26.5650    3.1390 O   0  0  0  0  0  0  0  0  0  0  0  0
  -47.3780   28.0850    2.0680 O   0  0  0  0  0  0  0  0  0  0  0  0
  -42.9810   31.6260    5.2780 N   0  0  0  0  0  4  0  0  0  0  0  0
  -43.1340   30.1090    5.1150 C   0  0  1  0  0  3  0  0  0  0  0  0
  -44.3030   29.6780    4.2840 C   0  0  0  0  0  0  0  0  0  0  0  0
  -43.5380   32.3890    4.0980 C   0  0  0  0  0  2  0  0  0  0  0  0
  -45.1730   30.5670    3.6640 C   0  0  0  0  0  0  0  0  0  0  0  0
  -44.9940   32.0440    3.8260 C   0  0  0  0  0  2  0  0  0  0  0  0
  -44.4860   28.2770    4.1720 C   0  0  0  0  0  3  0  0  0  0  0  0
  -43.6240   32.0760    6.5550 C   0  0  0  0  0  1  0  0  0  0  0  0
  -46.2620   30.1210    2.8800 C   0  0  0  0  0  3  0  0  0  0  0  0
  -45.5370   27.8530    3.4030 C   0  0  0  0  0  0  0  0  0  0  0  0
  -46.4160   28.7660    2.7640 C   0  0  0  0  0  0  0  0  0  0  0  0
  -47.0760   26.6820    2.2720 C   0  0  0  0  0  2  0  0  0  0  0  0
  -41.9200   31.8410    5.3270 H   0  0  0  0  0  0  0  0  0  0  0  0
  -41.7780   29.5120    4.5610 C   0  0  2  0  0  3  0  0  0  0  0  0
  -40.8890   29.5680    5.6670 O   0  0  0  0  0  0  0  0  0  0  0  0
  -39.8820   30.5850    5.4310 C   0  0  0  0  0  0  0  0  0  0  0  0
  -39.1290   30.7650    6.3460 O   0  0  0  0  0  0  0  0  0  0  0  0
  -40.1540   31.1410    4.1520 C   0  0  0  0  0  0  0  0  0  0  0  0
  -41.1780   30.3580    3.4860 C   0  0  0  0  0  0  0  0  0  0  0  0
  -39.5430   32.0920    3.3310 C   0  0  0  0  0  0  0  0  0  0  0  0
  -41.4670   30.4390    2.1420 C   0  0  0  0  0  3  0  0  0  0  0  0
  -40.8370   31.4140    1.3440 C   0  0  0  0  0  3  0  0  0  0  0  0
  -39.9000   32.2180    1.9920 C   0  0  0  0  0  0  0  0  0  0  0  0
  -39.2060   33.2630    1.4090 O   0  0  0  0  0  0  0  0  0  0  0  0
  -38.3800   33.7920    2.4650 C   0  0  0  0  0  2  0  0  0  0  0  0
  -38.6110   33.0440    3.6800 O   0  0  0  0  0  0  0  0  0  0  0  0
  1 12  1  0  0  0  0
  2 14  1  0  0  0  0
  2 13  1  0  0  0  0
  3 15  1  0  0  0  0
  3 10  1  0  0  0  0
  4  5  1  6  0  0  0
  4  3  1  0  0  0  0
  6  3  1  0  0  0  0
  7  8  1  0  0  0  0
  7  5  2  0  0  0  0
  8  6  1  0  0  0  0
  9  5  1  0  0  0  0
 11  7  1  0  0  0  0
 12  9  2  0  0  0  0
 13 11  2  0  0  0  0
 13 12  1  0  0  0  0
 14  1  1  0  0  0  0
 16 21  1  6  0  0  0
 16  4  1  0  0  0  0
 16 17  1  0  0  0  0
 18 17  1  0  0  0  0
 18 19  2  0  0  0  0
 20 18  1  0  0  0  0
 21 20  1  0  0  0  0
 22 28  1  0  0  0  0
 22 20  2  0  0  0  0
 23 21  2  0  0  0  0
 24 25  2  0  0  0  0
 24 23  1  0  0  0  0
 25 22  1  0  0  0  0
 26 25  1  0  0  0  0
 26 27  1  0  0  0  0
 27 28  1  0  0  0  0
M  END
>  <MODEL>
14

>  <REMARK>
 VINA RESULT:    -7.862     20.912     23.198
 INTER + INTRA:          -8.085
 INTER:                  -7.755
 INTRA:                  -0.330
 UNBOUND:                 0.237
  1 active torsions:
  status: ('A' for Active; 'I' for Inactive)
    1  A    between atoms: C1_8  and  C2_9 

>  <TORSDO>
F 1

$$$$
./Bicuculina.pdbqt
 OpenBabel10282519553D

 28 33  0  0  1  0  0  0  0  0999 V2000
   -2.2860   37.6340    5.5620 O   0  0  0  0  0  0  0  0  0  0  0  0
   -0.6760   35.9640    6.0060 O   0  0  0  0  0  0  0  0  0  0  0  0
   -4.5650   36.2640   11.1990 N   0  0  0  0  0  4  0  0  0  0  0  0
   -4.5970   37.0220    9.8650 C   0  0  1  0  0  3  0  0  0  0  0  0
   -3.5020   36.6640    8.9090 C   0  0  0  0  0  0  0  0  0  0  0  0
   -3.9400   34.8950   11.0660 C   0  0  0  0  0  2  0  0  0  0  0  0
   -2.5420   35.6940    9.1710 C   0  0  0  0  0  0  0  0  0  0  0  0
   -2.5400   34.9580   10.4740 C   0  0  0  0  0  2  0  0  0  0  0  0
   -3.4900   37.3970    7.6960 C   0  0  0  0  0  3  0  0  0  0  0  0
   -3.8520   37.0770   12.2380 C   0  0  0  0  0  1  0  0  0  0  0  0
   -1.5260   35.3780    8.2390 C   0  0  0  0  0  3  0  0  0  0  0  0
   -2.5100   37.0780    6.7940 C   0  0  0  0  0  0  0  0  0  0  0  0
   -1.5380   36.0790    7.0630 C   0  0  0  0  0  0  0  0  0  0  0  0
   -1.1400   36.9280    5.0270 C   0  0  0  0  0  2  0  0  0  0  0  0
   -5.5920   36.1190   11.5140 H   0  0  0  0  0  0  0  0  0  0  0  0
   -6.0230   36.8410    9.2070 C   0  0  2  0  0  3  0  0  0  0  0  0
   -6.3680   38.1400    8.7460 O   0  0  0  0  0  0  0  0  0  0  0  0
   -7.4370   38.6790    9.5640 C   0  0  0  0  0  0  0  0  0  0  0  0
   -7.7460   39.8070    9.3040 O   0  0  0  0  0  0  0  0  0  0  0  0
   -7.7600   37.6820   10.5250 C   0  0  0  0  0  0  0  0  0  0  0  0
   -7.0670   36.4490   10.2010 C   0  0  0  0  0  0  0  0  0  0  0  0
   -8.7130   37.5490   11.5370 C   0  0  0  0  0  0  0  0  0  0  0  0
   -7.3740   35.2200   10.7410 C   0  0  0  0  0  3  0  0  0  0  0  0
   -8.3370   35.1220   11.7650 C   0  0  0  0  0  3  0  0  0  0  0  0
   -8.9590   36.3150   12.1310 C   0  0  0  0  0  0  0  0  0  0  0  0
   -9.8930   36.4490   13.1430 O   0  0  0  0  0  0  0  0  0  0  0  0
  -10.2280   37.8510   13.1520 C   0  0  0  0  0  2  0  0  0  0  0  0
   -9.4650   38.5360   12.1330 O   0  0  0  0  0  0  0  0  0  0  0  0
  1 12  1  0  0  0  0
  2 13  1  0  0  0  0
  3 15  1  0  0  0  0
  3 10  1  0  0  0  0
  4  5  1  6  0  0  0
  4  3  1  0  0  0  0
  5  7  1  0  0  0  0
  6  3  1  0  0  0  0
  7  8  1  0  0  0  0
  8  6  1  0  0  0  0
  9  5  2  0  0  0  0
 11  7  2  0  0  0  0
 12 13  2  0  0  0  0
 12  9  1  0  0  0  0
 13 11  1  0  0  0  0
 14  1  1  0  0  0  0
 14  2  1  0  0  0  0
 16 17  1  1  0  0  0
 16  4  1  0  0  0  0
 16 21  1  0  0  0  0
 17 18  1  0  0  0  0
 18 20  1  0  0  0  0
 19 18  2  0  0  0  0
 20 22  1  0  0  0  0
 21 20  2  0  0  0  0
 21 23  1  0  0  0  0
 22 25  2  0  0  0  0
 22 28  1  0  0  0  0
 23 24  2  0  0  0  0
 24 25  1  0  0  0  0
 25 26  1  0  0  0  0
 26 27  1  0  0  0  0
 28 27  1  0  0  0  0
M  END
>  <MODEL>
15

>  <REMARK>
 VINA RESULT:    -7.857     39.621     41.084
 INTER + INTRA:          -8.080
 INTER:                  -7.990
 INTRA:                  -0.090
 UNBOUND:                 0.237
  1 active torsions:
  status: ('A' for Active; 'I' for Inactive)
    1  A    between atoms: C1_8  and  C2_9 

>  <TORSDO>
F 1

$$$$
./Bicuculina.pdbqt
 OpenBabel10282519553D

 28 33  0  0  1  0  0  0  0  0999 V2000
  -38.8460   31.5940    3.4810 O   0  0  0  0  0  0  0  0  0  0  0  0
  -39.2210   33.8540    2.9090 O   0  0  0  0  0  0  0  0  0  0  0  0
  -43.9520   30.3910    0.1160 N   0  0  0  0  0  4  0  0  0  0  0  0
  -42.7940   29.9700    1.0300 C   0  0  1  0  0  3  0  0  0  0  0  0
  -41.9000   31.0870    1.4700 C   0  0  0  0  0  0  0  0  0  0  0  0
  -44.3970   31.8130    0.3710 C   0  0  0  0  0  2  0  0  0  0  0  0
  -42.1050   32.4170    1.1240 C   0  0  0  0  0  0  0  0  0  0  0  0
  -43.2510   32.8050    0.2420 C   0  0  0  0  0  2  0  0  0  0  0  0
  -40.7950   30.7010    2.2710 C   0  0  0  0  0  3  0  0  0  0  0  0
  -43.5700   30.2020   -1.3220 C   0  0  0  0  0  1  0  0  0  0  0  0
  -41.2410   33.4450    1.5660 C   0  0  0  0  0  3  0  0  0  0  0  0
  -39.9690   31.7040    2.7030 C   0  0  0  0  0  0  0  0  0  0  0  0
  -40.1900   33.0620    2.3550 C   0  0  0  0  0  0  0  0  0  0  0  0
  -38.3630   32.9490    3.6480 C   0  0  0  0  0  2  0  0  0  0  0  0
  -44.7940   29.7460    0.3410 H   0  0  0  0  0  0  0  0  0  0  0  0
  -43.3790   29.1740    2.2650 C   0  0  2  0  0  3  0  0  0  0  0  0
  -44.0260   28.0500    1.6880 O   0  0  0  0  0  0  0  0  0  0  0  0
  -45.4630   28.1940    1.8200 C   0  0  0  0  0  0  0  0  0  0  0  0
  -46.1040   27.3300    1.2900 O   0  0  0  0  0  0  0  0  0  0  0  0
  -45.6900   29.4170    2.5080 C   0  0  0  0  0  0  0  0  0  0  0  0
  -44.4290   29.9440    2.9960 C   0  0  0  0  0  0  0  0  0  0  0  0
  -46.8130   30.0920    2.9910 C   0  0  0  0  0  0  0  0  0  0  0  0
  -44.3170   30.9420    3.9390 C   0  0  0  0  0  3  0  0  0  0  0  0
  -45.4700   31.6060    4.4010 C   0  0  0  0  0  3  0  0  0  0  0  0
  -46.6830   31.1520    3.8830 C   0  0  0  0  0  0  0  0  0  0  0  0
  -47.9240   31.6950    4.1650 O   0  0  0  0  0  0  0  0  0  0  0  0
  -48.8540   30.9080    3.3950 C   0  0  0  0  0  2  0  0  0  0  0  0
  -48.1340   29.9010    2.6490 O   0  0  0  0  0  0  0  0  0  0  0  0
  1 14  1  0  0  0  0
  2 14  1  0  0  0  0
  3 15  1  0  0  0  0
  3  6  1  0  0  0  0
  3  4  1  0  0  0  0
  4  5  1  1  0  0  0
  4 16  1  0  0  0  0
  5  9  1  0  0  0  0
  7  5  2  0  0  0  0
  7 11  1  0  0  0  0
  8  6  1  0  0  0  0
  8  7  1  0  0  0  0
  9 12  2  0  0  0  0
 10  3  1  0  0  0  0
 11 13  2  0  0  0  0
 12  1  1  0  0  0  0
 13 12  1  0  0  0  0
 13  2  1  0  0  0  0
 16 17  1  6  0  0  0
 16 21  1  0  0  0  0
 17 18  1  0  0  0  0
 18 20  1  0  0  0  0
 19 18  2  0  0  0  0
 20 22  2  0  0  0  0
 20 21  1  0  0  0  0
 21 23  2  0  0  0  0
 22 25  1  0  0  0  0
 23 24  1  0  0  0  0
 25 26  1  0  0  0  0
 25 24  2  0  0  0  0
 27 26  1  0  0  0  0
 28 22  1  0  0  0  0
 28 27  1  0  0  0  0
M  END
>  <MODEL>
16

>  <REMARK>
 VINA RESULT:    -7.857     19.701     22.469
 INTER + INTRA:          -8.079
 INTER:                  -7.705
 INTRA:                  -0.374
 UNBOUND:                 0.237
  1 active torsions:
  status: ('A' for Active; 'I' for Inactive)
    1  A    between atoms: C1_8  and  C2_9 

>  <TORSDO>
F 1

$$$$
./Bicuculina.pdbqt
 OpenBabel10282519553D

 28 33  0  0  1  0  0  0  0  0999 V2000
  -39.9280   33.5960    1.4960 O   0  0  0  0  0  0  0  0  0  0  0  0
  -38.4720   32.6000    3.0670 O   0  0  0  0  0  0  0  0  0  0  0  0
  -43.4300   28.4920    2.2200 N   0  0  0  0  0  4  0  0  0  0  0  0
  -43.1100   29.8410    1.5640 C   0  0  1  0  0  3  0  0  0  0  0  0
  -41.8490   30.4920    2.0420 C   0  0  0  0  0  0  0  0  0  0  0  0
  -42.1840   27.7580    2.6590 C   0  0  0  0  0  2  0  0  0  0  0  0
  -40.9960   29.9200    2.9770 C   0  0  0  0  0  0  0  0  0  0  0  0
  -41.3230   28.5950    3.5930 C   0  0  0  0  0  2  0  0  0  0  0  0
  -41.5730   31.7650    1.4810 C   0  0  0  0  0  3  0  0  0  0  0  0
  -44.3670   28.6890    3.3750 C   0  0  0  0  0  1  0  0  0  0  0  0
  -39.8100   30.5630    3.3980 C   0  0  0  0  0  3  0  0  0  0  0  0
  -40.4160   32.3770    1.8860 C   0  0  0  0  0  0  0  0  0  0  0  0
  -39.5440   31.7820    2.8350 C   0  0  0  0  0  0  0  0  0  0  0  0
  -38.6790   33.7540    2.2130 C   0  0  0  0  0  2  0  0  0  0  0  0
  -43.9190   27.8760    1.4750 H   0  0  0  0  0  0  0  0  0  0  0  0
  -43.1100   29.6610   -0.0070 C   0  0  2  0  0  3  0  0  0  0  0  0
  -43.2840   30.9750   -0.5150 O   0  0  0  0  0  0  0  0  0  0  0  0
  -44.6060   31.1030   -1.0950 C   0  0  0  0  0  0  0  0  0  0  0  0
  -44.8800   32.2040   -1.4810 O   0  0  0  0  0  0  0  0  0  0  0  0
  -45.2390   29.8380   -0.9550 C   0  0  0  0  0  0  0  0  0  0  0  0
  -44.2740   28.8580   -0.4900 C   0  0  0  0  0  0  0  0  0  0  0  0
  -46.4620   29.2880   -1.3470 C   0  0  0  0  0  0  0  0  0  0  0  0
  -44.4710   27.4960   -0.5270 C   0  0  0  0  0  3  0  0  0  0  0  0
  -45.7180   26.9750   -0.9230 C   0  0  0  0  0  3  0  0  0  0  0  0
  -46.6760   27.9140   -1.3050 C   0  0  0  0  0  0  0  0  0  0  0  0
  -47.9750   27.6220   -1.6800 O   0  0  0  0  0  0  0  0  0  0  0  0
  -48.5730   28.9010   -1.9660 C   0  0  0  0  0  2  0  0  0  0  0  0
  -47.6030   29.9490   -1.7430 O   0  0  0  0  0  0  0  0  0  0  0  0
  1 12  1  0  0  0  0
  1 14  1  0  0  0  0
  3  6  1  0  0  0  0
  3 10  1  0  0  0  0
  4  5  1  1  0  0  0
  4  3  1  0  0  0  0
  5  7  1  0  0  0  0
  6  8  1  0  0  0  0
  7 11  2  0  0  0  0
  7  8  1  0  0  0  0
  9 12  1  0  0  0  0
  9  5  2  0  0  0  0
 12 13  2  0  0  0  0
 13  2  1  0  0  0  0
 13 11  1  0  0  0  0
 14  2  1  0  0  0  0
 15  3  1  0  0  0  0
 16 17  1  6  0  0  0
 16  4  1  0  0  0  0
 18 20  1  0  0  0  0
 18 17  1  0  0  0  0
 19 18  2  0  0  0  0
 20 21  1  0  0  0  0
 21 16  1  0  0  0  0
 22 25  1  0  0  0  0
 22 20  2  0  0  0  0
 23 21  2  0  0  0  0
 24 23  1  0  0  0  0
 25 24  2  0  0  0  0
 26 25  1  0  0  0  0
 27 28  1  0  0  0  0
 27 26  1  0  0  0  0
 28 22  1  0  0  0  0
M  END
>  <MODEL>
17

>  <REMARK>
 VINA RESULT:    -7.836     19.569     20.650
 INTER + INTRA:          -8.058
 INTER:                  -8.197
 INTRA:                   0.139
 UNBOUND:                 0.237
  1 active torsions:
  status: ('A' for Active; 'I' for Inactive)
    1  A    between atoms: C1_8  and  C2_9 

>  <TORSDO>
F 1

$$$$
./Bicuculina.pdbqt
 OpenBabel10282519553D

 28 33  0  0  1  0  0  0  0  0999 V2000
  -48.8890   31.6820    5.2340 O   0  0  0  0  0  0  0  0  0  0  0  0
  -48.2970   30.1840    6.9610 O   0  0  0  0  0  0  0  0  0  0  0  0
  -43.3060   30.3440    2.8100 N   0  0  0  0  0  4  0  0  0  0  0  0
  -44.6360   31.1080    2.8230 C   0  0  1  0  0  3  0  0  0  0  0  0
  -45.5390   30.7820    3.9710 C   0  0  0  0  0  0  0  0  0  0  0  0
  -42.8450   29.9690    4.2000 C   0  0  0  0  0  2  0  0  0  0  0  0
  -45.2050   29.8890    4.9820 C   0  0  0  0  0  0  0  0  0  0  0  0
  -43.8940   29.1670    4.9550 C   0  0  0  0  0  2  0  0  0  0  0  0
  -46.7940   31.4420    3.9630 C   0  0  0  0  0  3  0  0  0  0  0  0
  -43.4170   29.1280    1.9390 C   0  0  0  0  0  1  0  0  0  0  0  0
  -46.0830   29.6130    6.0560 C   0  0  0  0  0  3  0  0  0  0  0  0
  -47.6350   31.1770    5.0120 C   0  0  0  0  0  0  0  0  0  0  0  0
  -47.2820   30.2720    6.0470 C   0  0  0  0  0  0  0  0  0  0  0  0
  -49.3250   31.0870    6.4800 C   0  0  0  0  0  2  0  0  0  0  0  0
  -42.5560   31.0050    2.3910 H   0  0  0  0  0  0  0  0  0  0  0  0
  -44.3380   32.6580    2.7410 C   0  0  2  0  0  3  0  0  0  0  0  0
  -44.4060   32.9600    1.3550 O   0  0  0  0  0  0  0  0  0  0  0  0
  -43.0770   33.2510    0.8540 C   0  0  0  0  0  0  0  0  0  0  0  0
  -43.0180   33.4410   -0.3280 O   0  0  0  0  0  0  0  0  0  0  0  0
  -42.1900   33.1450    1.9600 C   0  0  0  0  0  0  0  0  0  0  0  0
  -42.9530   32.9990    3.1860 C   0  0  0  0  0  0  0  0  0  0  0  0
  -40.8240   33.3540    2.1620 C   0  0  0  0  0  0  0  0  0  0  0  0
  -42.4300   33.1610    4.4500 C   0  0  0  0  0  3  0  0  0  0  0  0
  -41.0470   33.3650    4.6180 C   0  0  0  0  0  3  0  0  0  0  0  0
  -40.2950   33.4370    3.4460 C   0  0  0  0  0  0  0  0  0  0  0  0
  -38.9200   33.5840    3.3880 O   0  0  0  0  0  0  0  0  0  0  0  0
  -38.6100   33.5910    1.9810 C   0  0  0  0  0  2  0  0  0  0  0  0
  -39.8260   33.4370    1.2170 O   0  0  0  0  0  0  0  0  0  0  0  0
  1 14  1  0  0  0  0
  3  4  1  0  0  0  0
  3  6  1  0  0  0  0
  4  5  1  1  0  0  0
  5  7  1  0  0  0  0
  6  8  1  0  0  0  0
  7 11  2  0  0  0  0
  8  7  1  0  0  0  0
  9  5  2  0  0  0  0
  9 12  1  0  0  0  0
 10  3  1  0  0  0  0
 12  1  1  0  0  0  0
 12 13  2  0  0  0  0
 13 11  1  0  0  0  0
 13  2  1  0  0  0  0
 14  2  1  0  0  0  0
 15  3  1  0  0  0  0
 16 17  1  6  0  0  0
 16  4  1  0  0  0  0
 16 21  1  0  0  0  0
 18 17  1  0  0  0  0
 18 20  1  0  0  0  0
 19 18  2  0  0  0  0
 20 22  2  0  0  0  0
 20 21  1  0  0  0  0
 21 23  2  0  0  0  0
 22 25  1  0  0  0  0
 23 24  1  0  0  0  0
 25 24  2  0  0  0  0
 26 25  1  0  0  0  0
 27 26  1  0  0  0  0
 28 27  1  0  0  0  0
 28 22  1  0  0  0  0
M  END
>  <MODEL>
18

>  <REMARK>
 VINA RESULT:    -7.815     21.195     24.071
 INTER + INTRA:          -8.035
 INTER:                  -7.933
 INTRA:                  -0.102
 UNBOUND:                 0.237
  1 active torsions:
  status: ('A' for Active; 'I' for Inactive)
    1  A    between atoms: C1_8  and  C2_9 

>  <TORSDO>
F 1

$$$$
./Bicuculina.pdbqt
 OpenBabel10282519553D

 28 33  0  0  1  0  0  0  0  0999 V2000
  -35.9030   23.6130  -12.6050 O   0  0  0  0  0  0  0  0  0  0  0  0
  -33.6530   23.7900  -11.9120 O   0  0  0  0  0  0  0  0  0  0  0  0
  -33.6720   20.3130  -17.3970 N   0  0  0  0  0  4  0  0  0  0  0  0
  -34.8110   20.9890  -16.6240 C   0  0  1  0  0  3  0  0  0  0  0  0
  -34.3900   21.7070  -15.3790 C   0  0  0  0  0  0  0  0  0  0  0  0
  -32.3490   21.0190  -17.2050 C   0  0  0  0  0  2  0  0  0  0  0  0
  -33.0690   21.8010  -14.9570 C   0  0  0  0  0  0  0  0  0  0  0  0
  -31.9730   21.1440  -15.7360 C   0  0  0  0  0  2  0  0  0  0  0  0
  -35.4420   22.2900  -14.6280 C   0  0  0  0  0  3  0  0  0  0  0  0
  -33.5670   18.8690  -17.0040 C   0  0  0  0  0  1  0  0  0  0  0  0
  -32.7090   22.4940  -13.7780 C   0  0  0  0  0  3  0  0  0  0  0  0
  -35.0840   22.9680  -13.4930 C   0  0  0  0  0  0  0  0  0  0  0  0
  -33.7320   23.0690  -13.0730 C   0  0  0  0  0  0  0  0  0  0  0  0
  -35.0180   24.1660  -11.6010 C   0  0  0  0  0  2  0  0  0  0  0  0
  -33.9160   20.3700  -18.4510 H   0  0  0  0  0  0  0  0  0  0  0  0
  -35.6000   21.9460  -17.6050 C   0  0  2  0  0  3  0  0  0  0  0  0
  -36.1660   21.0730  -18.5720 O   0  0  0  0  0  0  0  0  0  0  0  0
  -35.4930   21.2520  -19.8440 C   0  0  0  0  0  0  0  0  0  0  0  0
  -35.8470   20.5000  -20.7070 O   0  0  0  0  0  0  0  0  0  0  0  0
  -34.5150   22.2660  -19.6500 C   0  0  0  0  0  0  0  0  0  0  0  0
  -34.6960   22.8770  -18.3460 C   0  0  0  0  0  0  0  0  0  0  0  0
  -33.5990   22.9320  -20.4670 C   0  0  0  0  0  0  0  0  0  0  0  0
  -34.1210   24.0660  -17.9590 C   0  0  0  0  0  3  0  0  0  0  0  0
  -33.1970   24.7090  -18.8050 C   0  0  0  0  0  3  0  0  0  0  0  0
  -32.9640   24.0920  -20.0330 C   0  0  0  0  0  0  0  0  0  0  0  0
  -32.0620   24.5280  -20.9870 O   0  0  0  0  0  0  0  0  0  0  0  0
  -32.1670   23.5690  -22.0590 C   0  0  0  0  0  2  0  0  0  0  0  0
  -33.1400   22.5600  -21.7110 O   0  0  0  0  0  0  0  0  0  0  0  0
  1 14  1  0  0  0  0
  2 14  1  0  0  0  0
  3  6  1  0  0  0  0
  3 10  1  0  0  0  0
  3  4  1  0  0  0  0
  4  5  1  1  0  0  0
  5  7  2  0  0  0  0
  5  9  1  0  0  0  0
  6  8  1  0  0  0  0
  7 11  1  0  0  0  0
  8  7  1  0  0  0  0
  9 12  2  0  0  0  0
 11 13  2  0  0  0  0
 12 13  1  0  0  0  0
 12  1  1  0  0  0  0
 13  2  1  0  0  0  0
 15  3  1  0  0  0  0
 16 17  1  6  0  0  0
 16  4  1  0  0  0  0
 18 20  1  0  0  0  0
 18 17  1  0  0  0  0
 19 18  2  0  0  0  0
 20 21  1  0  0  0  0
 21 23  2  0  0  0  0
 21 16  1  0  0  0  0
 22 25  1  0  0  0  0
 22 20  2  0  0  0  0
 24 23  1  0  0  0  0
 25 24  2  0  0  0  0
 26 25  1  0  0  0  0
 27 28  1  0  0  0  0
 27 26  1  0  0  0  0
 28 22  1  0  0  0  0
M  END
>  <MODEL>
19

>  <REMARK>
 VINA RESULT:    -7.783      2.777      4.370
 INTER + INTRA:          -8.001
 INTER:                  -7.640
 INTRA:                  -0.361
 UNBOUND:                 0.237
  1 active torsions:
  status: ('A' for Active; 'I' for Inactive)
    1  A    between atoms: C1_8  and  C2_9 

>  <TORSDO>
F 1

$$$$
./Bicuculina.pdbqt
 OpenBabel10282519553D

 28 33  0  0  1  0  0  0  0  0999 V2000
  -40.7310   33.4660    1.2320 O   0  0  0  0  0  0  0  0  0  0  0  0
  -39.3260   32.0910    2.5420 O   0  0  0  0  0  0  0  0  0  0  0  0
  -44.6360   28.6100    1.1780 N   0  0  0  0  0  4  0  0  0  0  0  0
  -44.2190   30.0260    0.7600 C   0  0  1  0  0  3  0  0  0  0  0  0
  -42.8960   30.4780    1.2950 C   0  0  0  0  0  0  0  0  0  0  0  0
  -43.4470   27.7120    1.4300 C   0  0  0  0  0  2  0  0  0  0  0  0
  -42.0710   29.6800    2.0790 C   0  0  0  0  0  0  0  0  0  0  0  0
  -42.4940   28.2960    2.4620 C   0  0  0  0  0  2  0  0  0  0  0  0
  -42.5250   31.8040    0.9580 C   0  0  0  0  0  3  0  0  0  0  0  0
  -45.5240   28.6690    2.3860 C   0  0  0  0  0  1  0  0  0  0  0  0
  -40.8240   30.1400    2.5590 C   0  0  0  0  0  3  0  0  0  0  0  0
  -41.3110   32.2390    1.4190 C   0  0  0  0  0  0  0  0  0  0  0  0
  -40.4690   31.4160    2.2110 C   0  0  0  0  0  0  0  0  0  0  0  0
  -39.4550   33.3930    1.9150 C   0  0  0  0  0  2  0  0  0  0  0  0
  -45.1950   28.1800    0.3560 H   0  0  0  0  0  0  0  0  0  0  0  0
  -44.2740   30.1310   -0.8170 C   0  0  2  0  0  3  0  0  0  0  0  0
  -45.5420   30.7110   -1.0890 O   0  0  0  0  0  0  0  0  0  0  0  0
  -46.4120   29.7190   -1.6890 C   0  0  0  0  0  0  0  0  0  0  0  0
  -47.5350   30.0900   -1.8830 O   0  0  0  0  0  0  0  0  0  0  0  0
  -45.6530   28.5220   -1.8010 C   0  0  0  0  0  0  0  0  0  0  0  0
  -44.2640   28.7930   -1.4810 C   0  0  0  0  0  0  0  0  0  0  0  0
  -45.8760   27.2500   -2.3330 C   0  0  0  0  0  0  0  0  0  0  0  0
  -43.2200   27.9420   -1.7670 C   0  0  0  0  0  3  0  0  0  0  0  0
  -43.4800   26.6630   -2.2980 C   0  0  0  0  0  3  0  0  0  0  0  0
  -44.8210   26.3670   -2.5440 C   0  0  0  0  0  0  0  0  0  0  0  0
  -45.2970   25.1570   -3.0160 O   0  0  0  0  0  0  0  0  0  0  0  0
  -46.7260   25.3290   -3.0930 C   0  0  0  0  0  2  0  0  0  0  0  0
  -47.0780   26.6580   -2.6490 O   0  0  0  0  0  0  0  0  0  0  0  0
  1 12  1  0  0  0  0
  1 14  1  0  0  0  0
  3  6  1  0  0  0  0
  3 10  1  0  0  0  0
  4  3  1  0  0  0  0
  4  5  1  6  0  0  0
  5  7  1  0  0  0  0
  6  8  1  0  0  0  0
  7  8  1  0  0  0  0
  7 11  2  0  0  0  0
  9  5  2  0  0  0  0
  9 12  1  0  0  0  0
 12 13  2  0  0  0  0
 13  2  1  0  0  0  0
 13 11  1  0  0  0  0
 14  2  1  0  0  0  0
 15  3  1  0  0  0  0
 16 21  1  6  0  0  0
 16  4  1  0  0  0  0
 17 16  1  0  0  0  0
 18 17  1  0  0  0  0
 19 18  2  0  0  0  0
 20 18  1  0  0  0  0
 20 21  1  0  0  0  0
 22 20  2  0  0  0  0
 23 21  2  0  0  0  0
 24 23  1  0  0  0  0
 25 22  1  0  0  0  0
 25 24  2  0  0  0  0
 26 25  1  0  0  0  0
 27 26  1  0  0  0  0
 27 28  1  0  0  0  0
 28 22  1  0  0  0  0
M  END
>  <MODEL>
20

>  <REMARK>
 VINA RESULT:    -7.718     17.466     19.842
 INTER + INTRA:          -7.932
 INTER:                  -7.850
 INTRA:                  -0.082
 UNBOUND:                 0.237
  1 active torsions:
  status: ('A' for Active; 'I' for Inactive)
    1  A    between atoms: C1_8  and  C2_9 

>  <TORSDO>
F 1

$$$$
