./CarotenoB.pdbqt
 OpenBabel10282519553D

 40 41  0  0  0  0  0  0  0  0999 V2000
  -32.6930   21.7000  -14.3540 C   0  0  0  0  0  3  0  0  0  0  0  0
  -33.8950   22.3030  -14.4380 C   0  0  0  0  0  3  0  0  0  0  0  0
  -31.6730   22.1420  -13.4240 C   0  0  0  0  0  3  0  0  0  0  0  0
  -30.3700   21.7950  -13.4900 C   0  0  0  0  0  0  0  0  0  0  0  0
  -29.8060   20.9200  -14.5590 C   0  0  0  0  0  1  0  0  0  0  0  0
  -29.4440   22.2810  -12.4680 C   0  0  0  0  0  3  0  0  0  0  0  0
  -28.1250   22.4290  -12.6760 C   0  0  0  0  0  3  0  0  0  0  0  0
  -27.2240   22.8900  -11.6380 C   0  0  0  0  0  3  0  0  0  0  0  0
  -26.0600   22.2900  -11.3220 C   0  0  0  0  0  0  0  0  0  0  0  0
  -25.5490   21.0630  -11.9990 C   0  0  0  0  0  1  0  0  0  0  0  0
  -25.2160   22.8540  -10.2650 C   0  0  0  0  0  3  0  0  0  0  0  0
  -25.6980   23.2540   -9.0820 C   0  0  0  0  0  3  0  0  0  0  0  0
  -24.8390   23.7910   -8.0200 C   0  0  0  0  0  0  0  0  0  0  0  0
  -24.8020   22.9640   -6.7550 C   0  0  0  0  0  0  0  0  0  0  0  0
  -23.6360   23.4040   -5.8400 C   0  0  0  0  0  2  0  0  0  0  0  0
  -26.1410   23.1380   -6.0160 C   0  0  0  0  0  1  0  0  0  0  0  0
  -24.6040   21.4760   -7.1000 C   0  0  0  0  0  1  0  0  0  0  0  0
  -23.5500   24.9280   -5.7470 C   0  0  0  0  0  2  0  0  0  0  0  0
  -23.2600   25.5130   -7.1340 C   0  0  0  0  0  2  0  0  0  0  0  0
  -24.1580   24.9350   -8.1840 C   0  0  0  0  0  0  0  0  0  0  0  0
  -24.2270   25.7400   -9.4420 C   0  0  0  0  0  1  0  0  0  0  0  0
  -34.9190   21.8590  -15.3620 C   0  0  0  0  0  3  0  0  0  0  0  0
  -36.2450   22.0130  -15.1660 C   0  0  0  0  0  0  0  0  0  0  0  0
  -36.8270   22.6920  -13.9720 C   0  0  0  0  0  1  0  0  0  0  0  0
  -37.1900   21.4890  -16.1520 C   0  0  0  0  0  3  0  0  0  0  0  0
  -38.5010   21.7810  -16.1390 C   0  0  0  0  0  3  0  0  0  0  0  0
  -39.4290   21.2320  -17.1100 C   0  0  0  0  0  3  0  0  0  0  0  0
  -40.7700   21.2440  -16.9700 C   0  0  0  0  0  0  0  0  0  0  0  0
  -41.4680   21.8120  -15.7790 C   0  0  0  0  0  1  0  0  0  0  0  0
  -41.6140   20.6820  -18.0250 C   0  0  0  0  0  3  0  0  0  0  0  0
  -42.8860   20.3110  -17.8300 C   0  0  0  0  0  3  0  0  0  0  0  0
  -43.7340   19.7750  -18.8990 C   0  0  0  0  0  0  0  0  0  0  0  0
  -43.8840   18.2690  -18.8760 C   0  0  0  0  0  0  0  0  0  0  0  0
  -45.0400   17.8150  -19.7950 C   0  0  0  0  0  2  0  0  0  0  0  0
  -42.5610   17.6360  -19.3500 C   0  0  0  0  0  1  0  0  0  0  0  0
  -44.1940   17.7900  -17.4460 C   0  0  0  0  0  1  0  0  0  0  0  0
  -44.9870   18.5300  -21.1450 C   0  0  0  0  0  2  0  0  0  0  0  0
  -45.1600   20.0380  -20.9350 C   0  0  0  0  0  2  0  0  0  0  0  0
  -44.2860   20.5630  -19.8350 C   0  0  0  0  0  0  0  0  0  0  0  0
  -44.0970   22.0440  -19.8770 C   0  0  0  0  0  1  0  0  0  0  0  0
  1  3  1  0  0  0  0
  2  1  2  0  0  0  0
  4  3  2  0  0  0  0
  4  6  1  0  0  0  0
  5  4  1  0  0  0  0
  7  6  2  0  0  0  0
  7  8  1  0  0  0  0
  8  9  2  0  0  0  0
  9 11  1  0  0  0  0
 10  9  1  0  0  0  0
 11 12  2  0  0  0  0
 12 13  1  0  0  0  0
 13 14  1  0  0  0  0
 14 16  1  0  0  0  0
 14 15  1  0  0  0  0
 15 18  1  0  0  0  0
 17 14  1  0  0  0  0
 19 18  1  0  0  0  0
 20 13  2  0  0  0  0
 20 19  1  0  0  0  0
 21 20  1  0  0  0  0
 22 23  2  0  0  0  0
 22  2  1  0  0  0  0
 23 24  1  0  0  0  0
 25 26  2  0  0  0  0
 25 23  1  0  0  0  0
 27 28  2  0  0  0  0
 27 26  1  0  0  0  0
 28 29  1  0  0  0  0
 30 31  2  0  0  0  0
 30 28  1  0  0  0  0
 32 33  1  0  0  0  0
 32 31  1  0  0  0  0
 33 36  1  0  0  0  0
 34 33  1  0  0  0  0
 35 33  1  0  0  0  0
 37 38  1  0  0  0  0
 37 34  1  0  0  0  0
 38 39  1  0  0  0  0
 39 32  2  0  0  0  0
 40 39  1  0  0  0  0
M  END
>  <MODEL>
1

>  <REMARK>
 VINA RESULT:    -8.719      0.000      0.000
 INTER + INTRA:         -15.125
 INTER:                 -13.816
 INTRA:                  -1.310
 UNBOUND:                -1.310
  10 active torsions:
  status: ('A' for Active; 'I' for Inactive)
    1  A    between atoms: C7_7  and  C17_17 
    2  A    between atoms: C8_8  and  C18_18 
    3  A    between atoms: C21_21  and  C23_23 
    4  A    between atoms: C22_22  and  C24_24 
    5  A    between atoms: C27_27  and  C29_29 
    6  A    between atoms: C28_28  and  C30_30 
    7  A    between atoms: C31_31  and  C33_33 
    8  A    between atoms: C32_32  and  C34_34 
    9  A    between atoms: C37_37  and  C39_39 
   10  A    between atoms: C38_38  and  C40_40 

>  <TORSDO>
F 10

$$$$
./CarotenoB.pdbqt
 OpenBabel10282519553D

 40 41  0  0  0  0  0  0  0  0999 V2000
  -33.7590   21.8050  -14.2980 C   0  0  0  0  0  3  0  0  0  0  0  0
  -32.4480   21.5240  -14.4270 C   0  0  0  0  0  3  0  0  0  0  0  0
  -34.7440   21.3410  -15.2540 C   0  0  0  0  0  3  0  0  0  0  0  0
  -34.5360   20.3630  -16.1600 C   0  0  0  0  0  0  0  0  0  0  0  0
  -33.2530   19.6090  -16.2750 C   0  0  0  0  0  1  0  0  0  0  0  0
  -35.6030   20.0090  -17.0950 C   0  0  0  0  0  3  0  0  0  0  0  0
  -36.8760   20.4110  -16.9510 C   0  0  0  0  0  3  0  0  0  0  0  0
  -37.9200   20.0260  -17.8810 C   0  0  0  0  0  3  0  0  0  0  0  0
  -39.1940   20.4610  -17.8160 C   0  0  0  0  0  0  0  0  0  0  0  0
  -39.6980   21.3940  -16.7670 C   0  0  0  0  0  1  0  0  0  0  0  0
  -40.1640   20.0210  -18.8220 C   0  0  0  0  0  3  0  0  0  0  0  0
  -40.3420   18.7350  -19.1510 C   0  0  0  0  0  3  0  0  0  0  0  0
  -41.3370   18.3040  -20.1390 C   0  0  0  0  0  0  0  0  0  0  0  0
  -40.8160   18.1880  -21.5540 C   0  0  0  0  0  0  0  0  0  0  0  0
  -41.8120   17.4150  -22.4490 C   0  0  0  0  0  2  0  0  0  0  0  0
  -40.5990   19.6050  -22.1160 C   0  0  0  0  0  1  0  0  0  0  0  0
  -39.4760   17.4280  -21.5650 C   0  0  0  0  0  1  0  0  0  0  0  0
  -43.2490   17.8840  -22.2110 C   0  0  0  0  0  2  0  0  0  0  0  0
  -43.6510   17.5940  -20.7600 C   0  0  0  0  0  2  0  0  0  0  0  0
  -42.6060   18.0490  -19.7880 C   0  0  0  0  0  0  0  0  0  0  0  0
  -43.0960   18.1890  -18.3830 C   0  0  0  0  0  1  0  0  0  0  0  0
  -31.4620   21.9810  -13.4680 C   0  0  0  0  0  3  0  0  0  0  0  0
  -30.1510   21.6640  -13.5100 C   0  0  0  0  0  0  0  0  0  0  0  0
  -29.5420   20.8170  -14.5770 C   0  0  0  0  0  1  0  0  0  0  0  0
  -29.2530   22.1520  -12.4630 C   0  0  0  0  0  3  0  0  0  0  0  0
  -27.9660   22.4630  -12.6870 C   0  0  0  0  0  3  0  0  0  0  0  0
  -27.0820   22.9220  -11.6320 C   0  0  0  0  0  3  0  0  0  0  0  0
  -25.9950   22.2490  -11.2050 C   0  0  0  0  0  0  0  0  0  0  0  0
  -25.5770   20.9260  -11.7580 C   0  0  0  0  0  1  0  0  0  0  0  0
  -25.1600   22.8180  -10.1470 C   0  0  0  0  0  3  0  0  0  0  0  0
  -25.6580   23.3920   -9.0440 C   0  0  0  0  0  3  0  0  0  0  0  0
  -24.8140   23.9340   -7.9750 C   0  0  0  0  0  0  0  0  0  0  0  0
  -24.8280   23.1190   -6.7000 C   0  0  0  0  0  0  0  0  0  0  0  0
  -23.6770   23.5430   -5.7600 C   0  0  0  0  0  2  0  0  0  0  0  0
  -26.1830   23.3300   -5.9950 C   0  0  0  0  0  1  0  0  0  0  0  0
  -24.6520   21.6240   -7.0250 C   0  0  0  0  0  1  0  0  0  0  0  0
  -23.5770   25.0650   -5.6610 C   0  0  0  0  0  2  0  0  0  0  0  0
  -23.2560   25.6500   -7.0400 C   0  0  0  0  0  2  0  0  0  0  0  0
  -24.1290   25.0790   -8.1170 C   0  0  0  0  0  0  0  0  0  0  0  0
  -24.1560   25.9020   -9.3640 C   0  0  0  0  0  1  0  0  0  0  0  0
  2  1  2  0  0  0  0
  2 22  1  0  0  0  0
  3  1  1  0  0  0  0
  4  3  2  0  0  0  0
  5  4  1  0  0  0  0
  6  7  2  0  0  0  0
  6  4  1  0  0  0  0
  8  9  2  0  0  0  0
  8  7  1  0  0  0  0
  9 10  1  0  0  0  0
 11  9  1  0  0  0  0
 12 11  2  0  0  0  0
 13 20  2  0  0  0  0
 13 12  1  0  0  0  0
 14 13  1  0  0  0  0
 15 18  1  0  0  0  0
 15 14  1  0  0  0  0
 16 14  1  0  0  0  0
 17 14  1  0  0  0  0
 18 19  1  0  0  0  0
 19 20  1  0  0  0  0
 20 21  1  0  0  0  0
 23 22  2  0  0  0  0
 23 25  1  0  0  0  0
 24 23  1  0  0  0  0
 26 25  2  0  0  0  0
 26 27  1  0  0  0  0
 27 28  2  0  0  0  0
 28 30  1  0  0  0  0
 29 28  1  0  0  0  0
 30 31  2  0  0  0  0
 31 32  1  0  0  0  0
 32 33  1  0  0  0  0
 33 35  1  0  0  0  0
 33 34  1  0  0  0  0
 34 37  1  0  0  0  0
 36 33  1  0  0  0  0
 38 37  1  0  0  0  0
 39 32  2  0  0  0  0
 39 38  1  0  0  0  0
 40 39  1  0  0  0  0
M  END
>  <MODEL>
2

>  <REMARK>
 VINA RESULT:    -8.673      1.539     18.266
 INTER + INTRA:         -15.053
 INTER:                 -14.251
 INTRA:                  -0.802
 UNBOUND:                -1.310
  10 active torsions:
  status: ('A' for Active; 'I' for Inactive)
    1  A    between atoms: C7_7  and  C17_17 
    2  A    between atoms: C8_8  and  C18_18 
    3  A    between atoms: C21_21  and  C23_23 
    4  A    between atoms: C22_22  and  C24_24 
    5  A    between atoms: C27_27  and  C29_29 
    6  A    between atoms: C28_28  and  C30_30 
    7  A    between atoms: C31_31  and  C33_33 
    8  A    between atoms: C32_32  and  C34_34 
    9  A    between atoms: C37_37  and  C39_39 
   10  A    between atoms: C38_38  and  C40_40 

>  <TORSDO>
F 10

$$$$
./CarotenoB.pdbqt
 OpenBabel10282519553D

 40 41  0  0  0  0  0  0  0  0999 V2000
  -32.5700   21.3900  -14.5390 C   0  0  0  0  0  3  0  0  0  0  0  0
  -33.8800   21.6790  -14.4210 C   0  0  0  0  0  3  0  0  0  0  0  0
  -31.5850   21.8760  -13.5930 C   0  0  0  0  0  3  0  0  0  0  0  0
  -30.2600   21.6330  -13.6680 C   0  0  0  0  0  0  0  0  0  0  0  0
  -29.6320   20.8400  -14.7660 C   0  0  0  0  0  1  0  0  0  0  0  0
  -29.3720   22.1520  -12.6290 C   0  0  0  0  0  3  0  0  0  0  0  0
  -28.0330   22.1550  -12.7340 C   0  0  0  0  0  3  0  0  0  0  0  0
  -27.1740   22.6550  -11.6780 C   0  0  0  0  0  3  0  0  0  0  0  0
  -25.8300   22.7070  -11.7540 C   0  0  0  0  0  0  0  0  0  0  0  0
  -25.0480   22.2460  -12.9380 C   0  0  0  0  0  1  0  0  0  0  0  0
  -25.0610   23.2500  -10.6320 C   0  0  0  0  0  3  0  0  0  0  0  0
  -25.6020   23.5170   -9.4370 C   0  0  0  0  0  3  0  0  0  0  0  0
  -24.8150   24.0340   -8.3120 C   0  0  0  0  0  0  0  0  0  0  0  0
  -24.8940   23.2060   -7.0490 C   0  0  0  0  0  0  0  0  0  0  0  0
  -23.7920   23.6190   -6.0460 C   0  0  0  0  0  2  0  0  0  0  0  0
  -26.2820   23.4110   -6.4140 C   0  0  0  0  0  1  0  0  0  0  0  0
  -24.7030   21.7140   -7.3800 C   0  0  0  0  0  1  0  0  0  0  0  0
  -23.6790   25.1420   -5.9440 C   0  0  0  0  0  2  0  0  0  0  0  0
  -23.2700   25.7200   -7.3030 C   0  0  0  0  0  2  0  0  0  0  0  0
  -24.0970   25.1620   -8.4200 C   0  0  0  0  0  0  0  0  0  0  0  0
  -24.0520   25.9690   -9.6780 C   0  0  0  0  0  1  0  0  0  0  0  0
  -34.8670   21.1880  -15.3620 C   0  0  0  0  0  3  0  0  0  0  0  0
  -36.0290   21.8130  -15.6460 C   0  0  0  0  0  0  0  0  0  0  0  0
  -36.4330   23.1160  -15.0420 C   0  0  0  0  0  1  0  0  0  0  0  0
  -36.9690   21.2030  -16.5870 C   0  0  0  0  0  3  0  0  0  0  0  0
  -37.7650   20.1710  -16.2610 C   0  0  0  0  0  3  0  0  0  0  0  0
  -38.6740   19.5600  -17.2130 C   0  0  0  0  0  3  0  0  0  0  0  0
  -40.0070   19.4650  -17.0370 C   0  0  0  0  0  0  0  0  0  0  0  0
  -40.7140   19.9640  -15.8200 C   0  0  0  0  0  1  0  0  0  0  0  0
  -40.8340   18.8480  -18.0750 C   0  0  0  0  0  3  0  0  0  0  0  0
  -42.1600   19.0220  -18.1600 C   0  0  0  0  0  3  0  0  0  0  0  0
  -42.9770   18.4240  -19.2200 C   0  0  0  0  0  0  0  0  0  0  0  0
  -42.5410   18.7940  -20.6220 C   0  0  0  0  0  0  0  0  0  0  0  0
  -43.2100   17.8760  -21.6690 C   0  0  0  0  0  2  0  0  0  0  0  0
  -42.9310   20.2610  -20.8880 C   0  0  0  0  0  1  0  0  0  0  0  0
  -41.0150   18.6410  -20.7590 C   0  0  0  0  0  1  0  0  0  0  0  0
  -44.7020   17.7060  -21.3810 C   0  0  0  0  0  2  0  0  0  0  0  0
  -44.8900   17.0280  -20.0200 C   0  0  0  0  0  2  0  0  0  0  0  0
  -44.0430   17.6540  -18.9520 C   0  0  0  0  0  0  0  0  0  0  0  0
  -44.4930   17.3310  -17.5650 C   0  0  0  0  0  1  0  0  0  0  0  0
  1  2  2  0  0  0  0
  1  3  1  0  0  0  0
  4  3  2  0  0  0  0
  4  6  1  0  0  0  0
  5  4  1  0  0  0  0
  7  6  2  0  0  0  0
  7  8  1  0  0  0  0
  9  8  2  0  0  0  0
  9 11  1  0  0  0  0
 10  9  1  0  0  0  0
 11 12  2  0  0  0  0
 12 13  1  0  0  0  0
 13 14  1  0  0  0  0
 14 16  1  0  0  0  0
 14 15  1  0  0  0  0
 15 18  1  0  0  0  0
 17 14  1  0  0  0  0
 19 18  1  0  0  0  0
 20 13  2  0  0  0  0
 20 19  1  0  0  0  0
 21 20  1  0  0  0  0
 22  2  1  0  0  0  0
 23 22  2  0  0  0  0
 23 24  1  0  0  0  0
 25 26  2  0  0  0  0
 25 23  1  0  0  0  0
 27 28  2  0  0  0  0
 27 26  1  0  0  0  0
 28 29  1  0  0  0  0
 30 28  1  0  0  0  0
 31 30  2  0  0  0  0
 32 39  2  0  0  0  0
 32 31  1  0  0  0  0
 33 32  1  0  0  0  0
 34 37  1  0  0  0  0
 34 33  1  0  0  0  0
 35 33  1  0  0  0  0
 36 33  1  0  0  0  0
 37 38  1  0  0  0  0
 38 39  1  0  0  0  0
 39 40  1  0  0  0  0
M  END
>  <MODEL>
3

>  <REMARK>
 VINA RESULT:    -8.673      1.072      1.748
 INTER + INTRA:         -15.053
 INTER:                 -14.534
 INTRA:                  -0.519
 UNBOUND:                -1.310
  10 active torsions:
  status: ('A' for Active; 'I' for Inactive)
    1  A    between atoms: C7_7  and  C17_17 
    2  A    between atoms: C8_8  and  C18_18 
    3  A    between atoms: C21_21  and  C23_23 
    4  A    between atoms: C22_22  and  C24_24 
    5  A    between atoms: C27_27  and  C29_29 
    6  A    between atoms: C28_28  and  C30_30 
    7  A    between atoms: C31_31  and  C33_33 
    8  A    between atoms: C32_32  and  C34_34 
    9  A    between atoms: C37_37  and  C39_39 
   10  A    between atoms: C38_38  and  C40_40 

>  <TORSDO>
F 10

$$$$
./CarotenoB.pdbqt
 OpenBabel10282519553D

 40 41  0  0  0  0  0  0  0  0999 V2000
  -33.7920   21.8210  -14.3170 C   0  0  0  0  0  3  0  0  0  0  0  0
  -32.4700   21.7610  -14.5700 C   0  0  0  0  0  3  0  0  0  0  0  0
  -34.7820   21.3970  -15.2860 C   0  0  0  0  0  3  0  0  0  0  0  0
  -34.6260   20.3680  -16.1450 C   0  0  0  0  0  0  0  0  0  0  0  0
  -33.4040   19.5120  -16.1890 C   0  0  0  0  0  1  0  0  0  0  0  0
  -35.6890   20.0610  -17.1010 C   0  0  0  0  0  3  0  0  0  0  0  0
  -35.4570   19.6510  -18.3590 C   0  0  0  0  0  3  0  0  0  0  0  0
  -36.5300   19.3750  -19.2940 C   0  0  0  0  0  3  0  0  0  0  0  0
  -36.3700   18.7250  -20.4640 C   0  0  0  0  0  0  0  0  0  0  0  0
  -35.0580   18.2100  -20.9520 C   0  0  0  0  0  1  0  0  0  0  0  0
  -37.5300   18.4840  -21.3250 C   0  0  0  0  0  3  0  0  0  0  0  0
  -38.3070   17.4000  -21.2170 C   0  0  0  0  0  3  0  0  0  0  0  0
  -39.4830   17.1830  -22.0660 C   0  0  0  0  0  0  0  0  0  0  0  0
  -39.2770   16.1990  -23.1960 C   0  0  0  0  0  0  0  0  0  0  0  0
  -40.6290   15.7780  -23.8170 C   0  0  0  0  0  2  0  0  0  0  0  0
  -38.3940   16.8620  -24.2690 C   0  0  0  0  0  1  0  0  0  0  0  0
  -38.5760   14.9310  -22.6740 C   0  0  0  0  0  1  0  0  0  0  0  0
  -41.5430   16.9870  -24.0270 C   0  0  0  0  0  2  0  0  0  0  0  0
  -41.8660   17.6290  -22.6730 C   0  0  0  0  0  2  0  0  0  0  0  0
  -40.6370   17.8290  -21.8400 C   0  0  0  0  0  0  0  0  0  0  0  0
  -40.8060   18.8090  -20.7240 C   0  0  0  0  0  1  0  0  0  0  0  0
  -31.4780   22.1780  -13.5990 C   0  0  0  0  0  3  0  0  0  0  0  0
  -30.2040   21.7340  -13.5690 C   0  0  0  0  0  0  0  0  0  0  0  0
  -29.6450   20.7690  -14.5590 C   0  0  0  0  0  1  0  0  0  0  0  0
  -29.3000   22.1970  -12.5160 C   0  0  0  0  0  3  0  0  0  0  0  0
  -28.0270   22.5590  -12.7490 C   0  0  0  0  0  3  0  0  0  0  0  0
  -27.1360   22.9920  -11.6890 C   0  0  0  0  0  3  0  0  0  0  0  0
  -26.0490   22.3060  -11.2830 C   0  0  0  0  0  0  0  0  0  0  0  0
  -25.6380   20.9950  -11.8680 C   0  0  0  0  0  1  0  0  0  0  0  0
  -25.2060   22.8490  -10.2180 C   0  0  0  0  0  3  0  0  0  0  0  0
  -25.6960   23.3890   -9.0940 C   0  0  0  0  0  3  0  0  0  0  0  0
  -24.8430   23.9050   -8.0190 C   0  0  0  0  0  0  0  0  0  0  0  0
  -24.8860   23.0850   -6.7470 C   0  0  0  0  0  0  0  0  0  0  0  0
  -23.7280   23.4750   -5.7990 C   0  0  0  0  0  2  0  0  0  0  0  0
  -26.2380   23.3290   -6.0480 C   0  0  0  0  0  1  0  0  0  0  0  0
  -24.7470   21.5870   -7.0770 C   0  0  0  0  0  1  0  0  0  0  0  0
  -23.5900   24.9940   -5.6940 C   0  0  0  0  0  2  0  0  0  0  0  0
  -23.2460   25.5760   -7.0690 C   0  0  0  0  0  2  0  0  0  0  0  0
  -24.1280   25.0320   -8.1530 C   0  0  0  0  0  0  0  0  0  0  0  0
  -24.1270   25.8600   -9.3960 C   0  0  0  0  0  1  0  0  0  0  0  0
  2  1  2  0  0  0  0
  2 22  1  0  0  0  0
  3  1  1  0  0  0  0
  4  3  2  0  0  0  0
  5  4  1  0  0  0  0
  6  4  1  0  0  0  0
  7  6  2  0  0  0  0
  8  7  1  0  0  0  0
  9  8  2  0  0  0  0
 10  9  1  0  0  0  0
 11 12  2  0  0  0  0
 11  9  1  0  0  0  0
 13 20  2  0  0  0  0
 13 12  1  0  0  0  0
 14 17  1  0  0  0  0
 14 13  1  0  0  0  0
 15 14  1  0  0  0  0
 16 14  1  0  0  0  0
 18 15  1  0  0  0  0
 18 19  1  0  0  0  0
 19 20  1  0  0  0  0
 20 21  1  0  0  0  0
 22 23  2  0  0  0  0
 23 25  1  0  0  0  0
 24 23  1  0  0  0  0
 26 25  2  0  0  0  0
 26 27  1  0  0  0  0
 27 28  2  0  0  0  0
 28 30  1  0  0  0  0
 29 28  1  0  0  0  0
 30 31  2  0  0  0  0
 31 32  1  0  0  0  0
 32 33  1  0  0  0  0
 33 35  1  0  0  0  0
 33 34  1  0  0  0  0
 34 37  1  0  0  0  0
 36 33  1  0  0  0  0
 38 37  1  0  0  0  0
 39 32  2  0  0  0  0
 39 38  1  0  0  0  0
 40 39  1  0  0  0  0
M  END
>  <MODEL>
4

>  <REMARK>
 VINA RESULT:    -8.266      2.992     18.242
 INTER + INTRA:         -14.408
 INTER:                 -13.447
 INTRA:                  -0.961
 UNBOUND:                -1.310
  10 active torsions:
  status: ('A' for Active; 'I' for Inactive)
    1  A    between atoms: C7_7  and  C17_17 
    2  A    between atoms: C8_8  and  C18_18 
    3  A    between atoms: C21_21  and  C23_23 
    4  A    between atoms: C22_22  and  C24_24 
    5  A    between atoms: C27_27  and  C29_29 
    6  A    between atoms: C28_28  and  C30_30 
    7  A    between atoms: C31_31  and  C33_33 
    8  A    between atoms: C32_32  and  C34_34 
    9  A    between atoms: C37_37  and  C39_39 
   10  A    between atoms: C38_38  and  C40_40 

>  <TORSDO>
F 10

$$$$
./CarotenoB.pdbqt
 OpenBabel10282519553D

 40 41  0  0  0  0  0  0  0  0999 V2000
  -43.5540   23.6750  -12.8760 C   0  0  0  0  0  3  0  0  0  0  0  0
  -43.9080   24.7510  -12.1470 C   0  0  0  0  0  3  0  0  0  0  0  0
  -42.1960   23.1700  -12.8960 C   0  0  0  0  0  3  0  0  0  0  0  0
  -41.6360   22.5080  -13.9290 C   0  0  0  0  0  0  0  0  0  0  0  0
  -42.3510   22.2280  -15.2090 C   0  0  0  0  0  1  0  0  0  0  0  0
  -40.2630   22.0180  -13.8130 C   0  0  0  0  0  3  0  0  0  0  0  0
  -39.1860   22.7600  -14.1180 C   0  0  0  0  0  3  0  0  0  0  0  0
  -37.8350   22.2420  -14.0160 C   0  0  0  0  0  3  0  0  0  0  0  0
  -36.7540   22.8280  -14.5670 C   0  0  0  0  0  0  0  0  0  0  0  0
  -36.8090   24.0880  -15.3640 C   0  0  0  0  0  1  0  0  0  0  0  0
  -35.4300   22.2260  -14.3850 C   0  0  0  0  0  3  0  0  0  0  0  0
  -34.2980   22.8200  -14.7800 C   0  0  0  0  0  3  0  0  0  0  0  0
  -32.9760   22.2200  -14.5660 C   0  0  0  0  0  0  0  0  0  0  0  0
  -32.4650   21.3830  -15.7170 C   0  0  0  0  0  0  0  0  0  0  0  0
  -30.9570   21.0800  -15.5560 C   0  0  0  0  0  2  0  0  0  0  0  0
  -33.2610   20.0660  -15.7570 C   0  0  0  0  0  1  0  0  0  0  0  0
  -32.6610   22.1340  -17.0470 C   0  0  0  0  0  1  0  0  0  0  0  0
  -30.6260   20.6700  -14.1190 C   0  0  0  0  0  2  0  0  0  0  0  0
  -30.9430   21.8290  -13.1670 C   0  0  0  0  0  2  0  0  0  0  0  0
  -32.2990   22.4100  -13.4240 C   0  0  0  0  0  0  0  0  0  0  0  0
  -32.8380   23.2300  -12.2960 C   0  0  0  0  0  1  0  0  0  0  0  0
  -45.2670   25.2530  -12.1200 C   0  0  0  0  0  3  0  0  0  0  0  0
  -45.6000   26.5600  -12.1460 C   0  0  0  0  0  0  0  0  0  0  0  0
  -44.5990   27.6630  -12.2330 C   0  0  0  0  0  1  0  0  0  0  0  0
  -47.0080   26.9520  -12.0740 C   0  0  0  0  0  3  0  0  0  0  0  0
  -47.4550   27.9400  -11.2820 C   0  0  0  0  0  3  0  0  0  0  0  0
  -48.8590   28.2990  -11.2040 C   0  0  0  0  0  3  0  0  0  0  0  0
  -49.3180   29.5660  -11.1670 C   0  0  0  0  0  0  0  0  0  0  0  0
  -48.4270   30.7650  -11.1830 C   0  0  0  0  0  1  0  0  0  0  0  0
  -50.7580   29.8140  -11.1120 C   0  0  0  0  0  3  0  0  0  0  0  0
  -51.3230   30.6910  -10.2710 C   0  0  0  0  0  3  0  0  0  0  0  0
  -52.7650   30.9550  -10.2420 C   0  0  0  0  0  0  0  0  0  0  0  0
  -53.4960   30.2770   -9.1030 C   0  0  0  0  0  0  0  0  0  0  0  0
  -54.9160   30.8630   -8.9320 C   0  0  0  0  0  2  0  0  0  0  0  0
  -53.5860   28.7680   -9.4050 C   0  0  0  0  0  1  0  0  0  0  0  0
  -52.7310   30.4860   -7.7830 C   0  0  0  0  0  1  0  0  0  0  0  0
  -55.6210   31.0040  -10.2810 C   0  0  0  0  0  2  0  0  0  0  0  0
  -54.8460   31.9850  -11.1670 C   0  0  0  0  0  2  0  0  0  0  0  0
  -53.3740   31.6990  -11.1780 C   0  0  0  0  0  0  0  0  0  0  0  0
  -52.6510   32.3270  -12.3250 C   0  0  0  0  0  1  0  0  0  0  0  0
  1  2  2  0  0  0  0
  2 22  1  0  0  0  0
  3  1  1  0  0  0  0
  4  6  1  0  0  0  0
  4  3  2  0  0  0  0
  5  4  1  0  0  0  0
  7  8  1  0  0  0  0
  7  6  2  0  0  0  0
  9 11  1  0  0  0  0
  9  8  2  0  0  0  0
 10  9  1  0  0  0  0
 12 13  1  0  0  0  0
 12 11  2  0  0  0  0
 13 20  2  0  0  0  0
 14 15  1  0  0  0  0
 14 13  1  0  0  0  0
 15 18  1  0  0  0  0
 16 14  1  0  0  0  0
 17 14  1  0  0  0  0
 18 19  1  0  0  0  0
 20 19  1  0  0  0  0
 20 21  1  0  0  0  0
 23 22  2  0  0  0  0
 23 25  1  0  0  0  0
 24 23  1  0  0  0  0
 25 26  2  0  0  0  0
 26 27  1  0  0  0  0
 27 28  2  0  0  0  0
 28 30  1  0  0  0  0
 29 28  1  0  0  0  0
 30 31  2  0  0  0  0
 31 32  1  0  0  0  0
 32 33  1  0  0  0  0
 33 34  1  0  0  0  0
 33 36  1  0  0  0  0
 35 33  1  0  0  0  0
 37 34  1  0  0  0  0
 38 37  1  0  0  0  0
 39 38  1  0  0  0  0
 39 32  2  0  0  0  0
 40 39  1  0  0  0  0
M  END
>  <MODEL>
5

>  <REMARK>
 VINA RESULT:    -8.205      9.492     13.357
 INTER + INTRA:         -14.311
 INTER:                 -12.839
 INTRA:                  -1.472
 UNBOUND:                -1.310
  10 active torsions:
  status: ('A' for Active; 'I' for Inactive)
    1  A    between atoms: C7_7  and  C17_17 
    2  A    between atoms: C8_8  and  C18_18 
    3  A    between atoms: C21_21  and  C23_23 
    4  A    between atoms: C22_22  and  C24_24 
    5  A    between atoms: C27_27  and  C29_29 
    6  A    between atoms: C28_28  and  C30_30 
    7  A    between atoms: C31_31  and  C33_33 
    8  A    between atoms: C32_32  and  C34_34 
    9  A    between atoms: C37_37  and  C39_39 
   10  A    between atoms: C38_38  and  C40_40 

>  <TORSDO>
F 10

$$$$
./CarotenoB.pdbqt
 OpenBabel10282519553D

 40 41  0  0  0  0  0  0  0  0999 V2000
  -33.7360   21.7860  -14.3180 C   0  0  0  0  0  3  0  0  0  0  0  0
  -32.4170   21.8040  -14.5930 C   0  0  0  0  0  3  0  0  0  0  0  0
  -34.7220   21.3840  -15.3010 C   0  0  0  0  0  3  0  0  0  0  0  0
  -34.5720   20.3620  -16.1680 C   0  0  0  0  0  0  0  0  0  0  0  0
  -33.3620   19.4890  -16.2080 C   0  0  0  0  0  1  0  0  0  0  0  0
  -35.6300   20.0770  -17.1360 C   0  0  0  0  0  3  0  0  0  0  0  0
  -35.3970   19.8350  -18.4360 C   0  0  0  0  0  3  0  0  0  0  0  0
  -36.4680   19.5790  -19.3810 C   0  0  0  0  0  3  0  0  0  0  0  0
  -36.2780   19.1750  -20.6520 C   0  0  0  0  0  0  0  0  0  0  0  0
  -34.9340   18.9440  -21.2570 C   0  0  0  0  0  1  0  0  0  0  0  0
  -37.4360   18.9270  -21.5150 C   0  0  0  0  0  3  0  0  0  0  0  0
  -37.7070   19.6610  -22.6010 C   0  0  0  0  0  3  0  0  0  0  0  0
  -38.8540   19.3860  -23.4740 C   0  0  0  0  0  0  0  0  0  0  0  0
  -39.9750   20.3960  -23.3850 C   0  0  0  0  0  0  0  0  0  0  0  0
  -40.9680   20.2260  -24.5590 C   0  0  0  0  0  2  0  0  0  0  0  0
  -40.7100   20.1980  -22.0470 C   0  0  0  0  0  1  0  0  0  0  0  0
  -39.4070   21.8260  -23.4440 C   0  0  0  0  0  1  0  0  0  0  0  0
  -41.2980   18.7510  -24.7950 C   0  0  0  0  0  2  0  0  0  0  0  0
  -40.0240   17.9950  -25.1890 C   0  0  0  0  0  2  0  0  0  0  0  0
  -38.8810   18.3080  -24.2720 C   0  0  0  0  0  0  0  0  0  0  0  0
  -37.7630   17.3180  -24.3260 C   0  0  0  0  0  1  0  0  0  0  0  0
  -31.4280   22.1990  -13.6110 C   0  0  0  0  0  3  0  0  0  0  0  0
  -30.1720   21.7110  -13.5520 C   0  0  0  0  0  0  0  0  0  0  0  0
  -29.6300   20.7120  -14.5190 C   0  0  0  0  0  1  0  0  0  0  0  0
  -29.2700   22.1550  -12.4880 C   0  0  0  0  0  3  0  0  0  0  0  0
  -28.0840   22.7390  -12.7290 C   0  0  0  0  0  3  0  0  0  0  0  0
  -27.1910   23.1520  -11.6630 C   0  0  0  0  0  3  0  0  0  0  0  0
  -25.9920   22.5870  -11.4150 C   0  0  0  0  0  0  0  0  0  0  0  0
  -25.4420   21.4450  -12.2050 C   0  0  0  0  0  1  0  0  0  0  0  0
  -25.1610   23.0990  -10.3260 C   0  0  0  0  0  3  0  0  0  0  0  0
  -25.6560   23.4870   -9.1420 C   0  0  0  0  0  3  0  0  0  0  0  0
  -24.8130   23.9720   -8.0450 C   0  0  0  0  0  0  0  0  0  0  0  0
  -24.8520   23.1060   -6.8040 C   0  0  0  0  0  0  0  0  0  0  0  0
  -23.7030   23.4730   -5.8370 C   0  0  0  0  0  2  0  0  0  0  0  0
  -26.2100   23.3120   -6.1030 C   0  0  0  0  0  1  0  0  0  0  0  0
  -24.6970   21.6230   -7.1870 C   0  0  0  0  0  1  0  0  0  0  0  0
  -23.5800   24.9890   -5.6770 C   0  0  0  0  0  2  0  0  0  0  0  0
  -23.2360   25.6240   -7.0280 C   0  0  0  0  0  2  0  0  0  0  0  0
  -24.1080   25.1110   -8.1350 C   0  0  0  0  0  0  0  0  0  0  0  0
  -24.1110   25.9820   -9.3480 C   0  0  0  0  0  1  0  0  0  0  0  0
  2  1  2  0  0  0  0
  2 22  1  0  0  0  0
  3  1  1  0  0  0  0
  4  3  2  0  0  0  0
  5  4  1  0  0  0  0
  6  4  1  0  0  0  0
  7  6  2  0  0  0  0
  8  7  1  0  0  0  0
  9  8  2  0  0  0  0
 10  9  1  0  0  0  0
 11  9  1  0  0  0  0
 12 11  2  0  0  0  0
 13 14  1  0  0  0  0
 13 12  1  0  0  0  0
 14 16  1  0  0  0  0
 15 14  1  0  0  0  0
 17 14  1  0  0  0  0
 18 15  1  0  0  0  0
 19 18  1  0  0  0  0
 19 20  1  0  0  0  0
 20 13  2  0  0  0  0
 21 20  1  0  0  0  0
 22 23  2  0  0  0  0
 23 25  1  0  0  0  0
 24 23  1  0  0  0  0
 26 25  2  0  0  0  0
 26 27  1  0  0  0  0
 27 28  2  0  0  0  0
 28 30  1  0  0  0  0
 29 28  1  0  0  0  0
 30 31  2  0  0  0  0
 31 32  1  0  0  0  0
 32 33  1  0  0  0  0
 33 35  1  0  0  0  0
 33 34  1  0  0  0  0
 34 37  1  0  0  0  0
 36 33  1  0  0  0  0
 38 37  1  0  0  0  0
 39 32  2  0  0  0  0
 39 38  1  0  0  0  0
 40 39  1  0  0  0  0
M  END
>  <MODEL>
6

>  <REMARK>
 VINA RESULT:    -7.844      3.442     18.236
 INTER + INTRA:         -13.739
 INTER:                 -12.798
 INTRA:                  -0.941
 UNBOUND:                -1.310
  10 active torsions:
  status: ('A' for Active; 'I' for Inactive)
    1  A    between atoms: C7_7  and  C17_17 
    2  A    between atoms: C8_8  and  C18_18 
    3  A    between atoms: C21_21  and  C23_23 
    4  A    between atoms: C22_22  and  C24_24 
    5  A    between atoms: C27_27  and  C29_29 
    6  A    between atoms: C28_28  and  C30_30 
    7  A    between atoms: C31_31  and  C33_33 
    8  A    between atoms: C32_32  and  C34_34 
    9  A    between atoms: C37_37  and  C39_39 
   10  A    between atoms: C38_38  and  C40_40 

>  <TORSDO>
F 10

$$$$
./CarotenoB.pdbqt
 OpenBabel10282519553D

 40 41  0  0  0  0  0  0  0  0999 V2000
  -43.5060   24.7860   -8.0640 C   0  0  0  0  0  3  0  0  0  0  0  0
  -43.3730   24.3540   -6.7950 C   0  0  0  0  0  3  0  0  0  0  0  0
  -43.2640   23.9200   -9.2010 C   0  0  0  0  0  3  0  0  0  0  0  0
  -43.6590   24.1830  -10.4640 C   0  0  0  0  0  0  0  0  0  0  0  0
  -44.3840   25.4270  -10.8570 C   0  0  0  0  0  1  0  0  0  0  0  0
  -43.3840   23.2110  -11.5210 C   0  0  0  0  0  3  0  0  0  0  0  0
  -43.0040   23.5550  -12.7630 C   0  0  0  0  0  3  0  0  0  0  0  0
  -42.7610   22.5710  -13.8000 C   0  0  0  0  0  3  0  0  0  0  0  0
  -41.5400   22.1160  -14.1430 C   0  0  0  0  0  0  0  0  0  0  0  0
  -40.2740   22.5750  -13.5000 C   0  0  0  0  0  1  0  0  0  0  0  0
  -41.4110   21.1050  -15.1950 C   0  0  0  0  0  3  0  0  0  0  0  0
  -41.7630   21.3260  -16.4670 C   0  0  0  0  0  3  0  0  0  0  0  0
  -41.6030   20.3150  -17.5180 C   0  0  0  0  0  0  0  0  0  0  0  0
  -40.3650   20.4770  -18.3710 C   0  0  0  0  0  0  0  0  0  0  0  0
  -40.0990   19.2050  -19.2080 C   0  0  0  0  0  2  0  0  0  0  0  0
  -40.5660   21.6850  -19.3040 C   0  0  0  0  0  1  0  0  0  0  0  0
  -39.1350   20.7270  -17.4780 C   0  0  0  0  0  1  0  0  0  0  0  0
  -41.3880   18.6810  -19.8430 C   0  0  0  0  0  2  0  0  0  0  0  0
  -42.3770   18.2790  -18.7430 C   0  0  0  0  0  2  0  0  0  0  0  0
  -42.5070   19.3390  -17.6920 C   0  0  0  0  0  0  0  0  0  0  0  0
  -43.7310   19.2150  -16.8440 C   0  0  0  0  0  1  0  0  0  0  0  0
  -43.6200   25.2160   -5.6560 C   0  0  0  0  0  3  0  0  0  0  0  0
  -43.2570   24.9300   -4.3880 C   0  0  0  0  0  0  0  0  0  0  0  0
  -42.5230   23.6900   -4.0010 C   0  0  0  0  0  1  0  0  0  0  0  0
  -43.5950   25.8590   -3.3100 C   0  0  0  0  0  3  0  0  0  0  0  0
  -43.7720   27.1770   -3.5060 C   0  0  0  0  0  3  0  0  0  0  0  0
  -44.0820   28.0890   -2.4220 C   0  0  0  0  0  3  0  0  0  0  0  0
  -44.0000   29.4320   -2.5120 C   0  0  0  0  0  0  0  0  0  0  0  0
  -43.5580   30.1480   -3.7450 C   0  0  0  0  0  1  0  0  0  0  0  0
  -44.3600   30.2590   -1.3600 C   0  0  0  0  0  3  0  0  0  0  0  0
  -43.5770   30.3990   -0.2820 C   0  0  0  0  0  3  0  0  0  0  0  0
  -43.9320   31.2530    0.8560 C   0  0  0  0  0  0  0  0  0  0  0  0
  -43.3190   32.6360    0.8090 C   0  0  0  0  0  0  0  0  0  0  0  0
  -43.9960   33.5760    1.8320 C   0  0  0  0  0  2  0  0  0  0  0  0
  -41.8140   32.5190    1.1230 C   0  0  0  0  0  1  0  0  0  0  0  0
  -43.4990   33.2470   -0.5930 C   0  0  0  0  0  1  0  0  0  0  0  0
  -44.1620   32.8890    3.1880 C   0  0  0  0  0  2  0  0  0  0  0  0
  -45.0780   31.6700    3.0380 C   0  0  0  0  0  2  0  0  0  0  0  0
  -44.6990   30.8140    1.8670 C   0  0  0  0  0  0  0  0  0  0  0  0
  -45.2630   29.4320    1.9280 C   0  0  0  0  0  1  0  0  0  0  0  0
  1  2  2  0  0  0  0
  2 22  1  0  0  0  0
  3  1  1  0  0  0  0
  4  3  2  0  0  0  0
  5  4  1  0  0  0  0
  6  4  1  0  0  0  0
  7  6  2  0  0  0  0
  8  7  1  0  0  0  0
  9  8  2  0  0  0  0
  9 10  1  0  0  0  0
 11  9  1  0  0  0  0
 12 11  2  0  0  0  0
 13 12  1  0  0  0  0
 14 13  1  0  0  0  0
 14 17  1  0  0  0  0
 15 14  1  0  0  0  0
 16 14  1  0  0  0  0
 18 15  1  0  0  0  0
 18 19  1  0  0  0  0
 19 20  1  0  0  0  0
 20 13  2  0  0  0  0
 20 21  1  0  0  0  0
 22 23  2  0  0  0  0
 23 24  1  0  0  0  0
 23 25  1  0  0  0  0
 26 25  2  0  0  0  0
 26 27  1  0  0  0  0
 28 27  2  0  0  0  0
 28 30  1  0  0  0  0
 29 28  1  0  0  0  0
 30 31  2  0  0  0  0
 31 32  1  0  0  0  0
 32 39  2  0  0  0  0
 33 32  1  0  0  0  0
 33 35  1  0  0  0  0
 33 34  1  0  0  0  0
 34 37  1  0  0  0  0
 36 33  1  0  0  0  0
 38 37  1  0  0  0  0
 39 40  1  0  0  0  0
 39 38  1  0  0  0  0
M  END
>  <MODEL>
7

>  <REMARK>
 VINA RESULT:    -7.790     12.011     19.208
 INTER + INTRA:         -13.654
 INTER:                 -12.338
 INTRA:                  -1.316
 UNBOUND:                -1.310
  10 active torsions:
  status: ('A' for Active; 'I' for Inactive)
    1  A    between atoms: C7_7  and  C17_17 
    2  A    between atoms: C8_8  and  C18_18 
    3  A    between atoms: C21_21  and  C23_23 
    4  A    between atoms: C22_22  and  C24_24 
    5  A    between atoms: C27_27  and  C29_29 
    6  A    between atoms: C28_28  and  C30_30 
    7  A    between atoms: C31_31  and  C33_33 
    8  A    between atoms: C32_32  and  C34_34 
    9  A    between atoms: C37_37  and  C39_39 
   10  A    between atoms: C38_38  and  C40_40 

>  <TORSDO>
F 10

$$$$
./CarotenoB.pdbqt
 OpenBabel10282519553D

 40 41  0  0  0  0  0  0  0  0999 V2000
  -43.6160   24.3380   -6.7130 C   0  0  0  0  0  3  0  0  0  0  0  0
  -43.2450   24.7930   -7.9250 C   0  0  0  0  0  3  0  0  0  0  0  0
  -43.7260   25.2120   -5.5620 C   0  0  0  0  0  3  0  0  0  0  0  0
  -43.2570   24.9250   -4.3300 C   0  0  0  0  0  0  0  0  0  0  0  0
  -42.5340   23.6620   -4.0000 C   0  0  0  0  0  1  0  0  0  0  0  0
  -43.4620   25.8790   -3.2410 C   0  0  0  0  0  3  0  0  0  0  0  0
  -44.0240   27.0870   -3.4120 C   0  0  0  0  0  3  0  0  0  0  0  0
  -44.1940   28.0240   -2.3180 C   0  0  0  0  0  3  0  0  0  0  0  0
  -44.0150   29.3550   -2.4250 C   0  0  0  0  0  0  0  0  0  0  0  0
  -43.6100   30.0390   -3.6870 C   0  0  0  0  0  1  0  0  0  0  0  0
  -44.2330   30.2130   -1.2570 C   0  0  0  0  0  3  0  0  0  0  0  0
  -43.2630   30.5220   -0.3880 C   0  0  0  0  0  3  0  0  0  0  0  0
  -43.4870   31.4050    0.7630 C   0  0  0  0  0  0  0  0  0  0  0  0
  -43.5340   30.7030    2.1010 C   0  0  0  0  0  0  0  0  0  0  0  0
  -43.4290   31.7180    3.2630 C   0  0  0  0  0  2  0  0  0  0  0  0
  -44.8600   29.9280    2.2030 C   0  0  0  0  0  1  0  0  0  0  0  0
  -42.3580   29.7150    2.2230 C   0  0  0  0  0  1  0  0  0  0  0  0
  -44.3240   32.9340    3.0170 C   0  0  0  0  0  2  0  0  0  0  0  0
  -43.8600   33.6680    1.7540 C   0  0  0  0  0  2  0  0  0  0  0  0
  -43.6430   32.7280    0.6080 C   0  0  0  0  0  0  0  0  0  0  0  0
  -43.6090   33.3920   -0.7310 C   0  0  0  0  0  1  0  0  0  0  0  0
  -43.1410   23.9220   -9.0780 C   0  0  0  0  0  3  0  0  0  0  0  0
  -43.6490   24.2020  -10.2960 C   0  0  0  0  0  0  0  0  0  0  0  0
  -44.3660   25.4710  -10.6180 C   0  0  0  0  0  1  0  0  0  0  0  0
  -43.5170   23.2270  -11.3790 C   0  0  0  0  0  3  0  0  0  0  0  0
  -42.8580   23.4850  -12.5220 C   0  0  0  0  0  3  0  0  0  0  0  0
  -42.7570   22.5150  -13.5960 C   0  0  0  0  0  3  0  0  0  0  0  0
  -41.5940   22.0390  -14.0830 C   0  0  0  0  0  0  0  0  0  0  0  0
  -40.2550   22.4700  -13.5820 C   0  0  0  0  0  1  0  0  0  0  0  0
  -41.6100   21.0440  -15.1550 C   0  0  0  0  0  3  0  0  0  0  0  0
  -41.6100   21.3650  -16.4560 C   0  0  0  0  0  3  0  0  0  0  0  0
  -41.5970   20.3610  -17.5250 C   0  0  0  0  0  0  0  0  0  0  0  0
  -40.2570   20.2040  -18.2120 C   0  0  0  0  0  0  0  0  0  0  0  0
  -40.2230   18.9180  -19.0690 C   0  0  0  0  0  2  0  0  0  0  0  0
  -40.0140   21.4350  -19.1060 C   0  0  0  0  0  1  0  0  0  0  0  0
  -39.1340   20.1080  -17.1630 C   0  0  0  0  0  1  0  0  0  0  0  0
  -41.4990   18.7750  -19.9000 C   0  0  0  0  0  2  0  0  0  0  0  0
  -42.7080   18.6490  -18.9680 C   0  0  0  0  0  2  0  0  0  0  0  0
  -42.6990   19.6820  -17.8810 C   0  0  0  0  0  0  0  0  0  0  0  0
  -44.0280   19.8770  -17.2290 C   0  0  0  0  0  1  0  0  0  0  0  0
  1  3  1  0  0  0  0
  2  1  2  0  0  0  0
  3  4  2  0  0  0  0
  4  5  1  0  0  0  0
  4  6  1  0  0  0  0
  7  6  2  0  0  0  0
  7  8  1  0  0  0  0
  9  8  2  0  0  0  0
  9 11  1  0  0  0  0
 10  9  1  0  0  0  0
 11 12  2  0  0  0  0
 12 13  1  0  0  0  0
 13 14  1  0  0  0  0
 14 16  1  0  0  0  0
 14 17  1  0  0  0  0
 14 15  1  0  0  0  0
 18 15  1  0  0  0  0
 19 18  1  0  0  0  0
 20 13  2  0  0  0  0
 20 19  1  0  0  0  0
 21 20  1  0  0  0  0
 22  2  1  0  0  0  0
 23 22  2  0  0  0  0
 24 23  1  0  0  0  0
 25 23  1  0  0  0  0
 26 25  2  0  0  0  0
 27 26  1  0  0  0  0
 28 27  2  0  0  0  0
 28 29  1  0  0  0  0
 30 28  1  0  0  0  0
 31 30  2  0  0  0  0
 32 31  1  0  0  0  0
 33 32  1  0  0  0  0
 33 36  1  0  0  0  0
 34 33  1  0  0  0  0
 35 33  1  0  0  0  0
 37 34  1  0  0  0  0
 37 38  1  0  0  0  0
 38 39  1  0  0  0  0
 39 32  2  0  0  0  0
 39 40  1  0  0  0  0
M  END
>  <MODEL>
8

>  <REMARK>
 VINA RESULT:    -7.666     11.997     15.155
 INTER + INTRA:         -13.456
 INTER:                 -11.956
 INTRA:                  -1.500
 UNBOUND:                -1.310
  10 active torsions:
  status: ('A' for Active; 'I' for Inactive)
    1  A    between atoms: C7_7  and  C17_17 
    2  A    between atoms: C8_8  and  C18_18 
    3  A    between atoms: C21_21  and  C23_23 
    4  A    between atoms: C22_22  and  C24_24 
    5  A    between atoms: C27_27  and  C29_29 
    6  A    between atoms: C28_28  and  C30_30 
    7  A    between atoms: C31_31  and  C33_33 
    8  A    between atoms: C32_32  and  C34_34 
    9  A    between atoms: C37_37  and  C39_39 
   10  A    between atoms: C38_38  and  C40_40 

>  <TORSDO>
F 10

$$$$
./CarotenoB.pdbqt
 OpenBabel10282519553D

 40 41  0  0  0  0  0  0  0  0999 V2000
  -41.3760   20.3450  -16.7110 C   0  0  0  0  0  3  0  0  0  0  0  0
  -41.8500   19.1220  -16.4020 C   0  0  0  0  0  3  0  0  0  0  0  0
  -40.2170   20.9120  -16.0500 C   0  0  0  0  0  3  0  0  0  0  0  0
  -40.2600   21.6500  -14.9220 C   0  0  0  0  0  0  0  0  0  0  0  0
  -41.5230   21.9590  -14.1900 C   0  0  0  0  0  1  0  0  0  0  0  0
  -39.0200   22.1960  -14.3710 C   0  0  0  0  0  3  0  0  0  0  0  0
  -37.8720   22.2680  -15.0640 C   0  0  0  0  0  3  0  0  0  0  0  0
  -36.6490   22.7920  -14.4860 C   0  0  0  0  0  3  0  0  0  0  0  0
  -35.4150   22.3460  -14.7890 C   0  0  0  0  0  0  0  0  0  0  0  0
  -35.1460   21.2440  -15.7570 C   0  0  0  0  0  1  0  0  0  0  0  0
  -34.2460   22.9630  -14.1570 C   0  0  0  0  0  3  0  0  0  0  0  0
  -33.9060   22.7450  -12.8800 C   0  0  0  0  0  3  0  0  0  0  0  0
  -32.7160   23.3460  -12.2670 C   0  0  0  0  0  0  0  0  0  0  0  0
  -33.0030   24.4610  -11.2860 C   0  0  0  0  0  0  0  0  0  0  0  0
  -31.7480   24.7970  -10.4470 C   0  0  0  0  0  2  0  0  0  0  0  0
  -33.4530   25.7050  -12.0740 C   0  0  0  0  0  1  0  0  0  0  0  0
  -34.1260   24.0410  -10.3190 C   0  0  0  0  0  1  0  0  0  0  0  0
  -30.4980   24.8680  -11.3260 C   0  0  0  0  0  2  0  0  0  0  0  0
  -30.2400   23.5000  -11.9660 C   0  0  0  0  0  2  0  0  0  0  0  0
  -31.4810   22.9250  -12.5770 C   0  0  0  0  0  0  0  0  0  0  0  0
  -31.2290   21.8310  -13.5640 C   0  0  0  0  0  1  0  0  0  0  0  0
  -43.0040   18.5500  -17.0660 C   0  0  0  0  0  3  0  0  0  0  0  0
  -44.0940   18.0730  -16.4290 C   0  0  0  0  0  0  0  0  0  0  0  0
  -44.2590   18.1010  -14.9470 C   0  0  0  0  0  1  0  0  0  0  0  0
  -45.1850   17.4810  -17.2040 C   0  0  0  0  0  3  0  0  0  0  0  0
  -45.9030   16.4300  -16.7740 C   0  0  0  0  0  3  0  0  0  0  0  0
  -46.9660   15.8390  -17.5650 C   0  0  0  0  0  3  0  0  0  0  0  0
  -47.1390   14.5140  -17.7350 C   0  0  0  0  0  0  0  0  0  0  0  0
  -46.2390   13.4830  -17.1380 C   0  0  0  0  0  1  0  0  0  0  0  0
  -48.2620   14.0260  -18.5370 C   0  0  0  0  0  3  0  0  0  0  0  0
  -49.4870   13.8160  -18.0370 C   0  0  0  0  0  3  0  0  0  0  0  0
  -50.6140   13.3550  -18.8540 C   0  0  0  0  0  0  0  0  0  0  0  0
  -50.8920   11.8710  -18.7450 C   0  0  0  0  0  0  0  0  0  0  0  0
  -52.2730   11.5230  -19.3450 C   0  0  0  0  0  2  0  0  0  0  0  0
  -49.7870   11.1060  -19.4990 C   0  0  0  0  0  1  0  0  0  0  0  0
  -50.8920   11.4400  -17.2670 C   0  0  0  0  0  1  0  0  0  0  0  0
  -52.4810   12.2150  -20.6930 C   0  0  0  0  0  2  0  0  0  0  0  0
  -52.4570   13.7350  -20.4990 C   0  0  0  0  0  2  0  0  0  0  0  0
  -51.3000   14.1830  -19.6580 C   0  0  0  0  0  0  0  0  0  0  0  0
  -50.9890   15.6370  -19.7940 C   0  0  0  0  0  1  0  0  0  0  0  0
  1  2  2  0  0  0  0
  1  3  1  0  0  0  0
  3  4  2  0  0  0  0
  4  6  1  0  0  0  0
  4  5  1  0  0  0  0
  7  8  1  0  0  0  0
  7  6  2  0  0  0  0
  9  8  2  0  0  0  0
  9 11  1  0  0  0  0
 10  9  1  0  0  0  0
 11 12  2  0  0  0  0
 12 13  1  0  0  0  0
 13 14  1  0  0  0  0
 14 15  1  0  0  0  0
 14 17  1  0  0  0  0
 16 14  1  0  0  0  0
 18 15  1  0  0  0  0
 19 18  1  0  0  0  0
 20 13  2  0  0  0  0
 20 19  1  0  0  0  0
 21 20  1  0  0  0  0
 22 23  2  0  0  0  0
 22  2  1  0  0  0  0
 23 24  1  0  0  0  0
 25 26  2  0  0  0  0
 25 23  1  0  0  0  0
 27 26  1  0  0  0  0
 28 27  2  0  0  0  0
 28 29  1  0  0  0  0
 30 31  2  0  0  0  0
 30 28  1  0  0  0  0
 32 33  1  0  0  0  0
 32 31  1  0  0  0  0
 33 36  1  0  0  0  0
 34 33  1  0  0  0  0
 35 33  1  0  0  0  0
 37 38  1  0  0  0  0
 37 34  1  0  0  0  0
 38 39  1  0  0  0  0
 39 32  2  0  0  0  0
 40 39  1  0  0  0  0
M  END
>  <MODEL>
9

>  <REMARK>
 VINA RESULT:    -7.580      4.620      9.480
 INTER + INTRA:         -13.321
 INTER:                 -11.711
 INTRA:                  -1.610
 UNBOUND:                -1.310
  10 active torsions:
  status: ('A' for Active; 'I' for Inactive)
    1  A    between atoms: C7_7  and  C17_17 
    2  A    between atoms: C8_8  and  C18_18 
    3  A    between atoms: C21_21  and  C23_23 
    4  A    between atoms: C22_22  and  C24_24 
    5  A    between atoms: C27_27  and  C29_29 
    6  A    between atoms: C28_28  and  C30_30 
    7  A    between atoms: C31_31  and  C33_33 
    8  A    between atoms: C32_32  and  C34_34 
    9  A    between atoms: C37_37  and  C39_39 
   10  A    between atoms: C38_38  and  C40_40 

>  <TORSDO>
F 10

$$$$
./CarotenoB.pdbqt
 OpenBabel10282519553D

 40 41  0  0  0  0  0  0  0  0999 V2000
  -21.7390   11.4680  -15.9150 C   0  0  0  0  0  3  0  0  0  0  0  0
  -21.3850   12.4990  -16.7070 C   0  0  0  0  0  3  0  0  0  0  0  0
  -22.7380   10.4970  -16.3140 C   0  0  0  0  0  3  0  0  0  0  0  0
  -22.6820    9.1770  -16.0380 C   0  0  0  0  0  0  0  0  0  0  0  0
  -21.5780    8.5480  -15.2550 C   0  0  0  0  0  1  0  0  0  0  0  0
  -23.7390    8.2940  -16.5280 C   0  0  0  0  0  3  0  0  0  0  0  0
  -23.9090    7.0340  -16.0950 C   0  0  0  0  0  3  0  0  0  0  0  0
  -24.9520    6.1690  -16.6150 C   0  0  0  0  0  3  0  0  0  0  0  0
  -25.2910    4.9820  -16.0770 C   0  0  0  0  0  0  0  0  0  0  0  0
  -24.6300    4.3970  -14.8750 C   0  0  0  0  0  1  0  0  0  0  0  0
  -26.3750    4.1980  -16.6740 C   0  0  0  0  0  3  0  0  0  0  0  0
  -26.3330    2.8660  -16.7950 C   0  0  0  0  0  3  0  0  0  0  0  0
  -27.4370    2.0890  -17.3690 C   0  0  0  0  0  0  0  0  0  0  0  0
  -27.4350    2.0050  -18.8790 C   0  0  0  0  0  0  0  0  0  0  0  0
  -28.4080    0.9090  -19.3740 C   0  0  0  0  0  2  0  0  0  0  0  0
  -27.8560    3.3720  -19.4480 C   0  0  0  0  0  1  0  0  0  0  0  0
  -26.0240    1.6560  -19.3890 C   0  0  0  0  0  1  0  0  0  0  0  0
  -29.7400    0.9720  -18.6230 C   0  0  0  0  0  2  0  0  0  0  0  0
  -29.5040    0.7050  -17.1330 C   0  0  0  0  0  2  0  0  0  0  0  0
  -28.3670    1.5170  -16.5910 C   0  0  0  0  0  0  0  0  0  0  0  0
  -28.3520    1.6320  -15.1010 C   0  0  0  0  0  1  0  0  0  0  0  0
  -20.3820   13.4670  -16.3130 C   0  0  0  0  0  3  0  0  0  0  0  0
  -20.1440   14.6270  -16.9580 C   0  0  0  0  0  0  0  0  0  0  0  0
  -20.9130   15.0770  -18.1550 C   0  0  0  0  0  1  0  0  0  0  0  0
  -19.0760   15.5110  -16.4910 C   0  0  0  0  0  3  0  0  0  0  0  0
  -18.4670   15.3610  -15.3030 C   0  0  0  0  0  3  0  0  0  0  0  0
  -17.4260   16.2620  -14.8430 C   0  0  0  0  0  3  0  0  0  0  0  0
  -16.1710   15.8780  -14.5370 C   0  0  0  0  0  0  0  0  0  0  0  0
  -15.7000   14.4640  -14.6170 C   0  0  0  0  0  1  0  0  0  0  0  0
  -15.1930   16.8770  -14.1050 C   0  0  0  0  0  3  0  0  0  0  0  0
  -15.4940   18.1700  -13.9200 C   0  0  0  0  0  3  0  0  0  0  0  0
  -14.5150   19.1590  -13.4580 C   0  0  0  0  0  0  0  0  0  0  0  0
  -13.8790   19.9670  -14.5690 C   0  0  0  0  0  0  0  0  0  0  0  0
  -13.1350   21.1970  -14.0010 C   0  0  0  0  0  2  0  0  0  0  0  0
  -12.8890   19.0630  -15.3300 C   0  0  0  0  0  1  0  0  0  0  0  0
  -14.9600   20.4700  -15.5430 C   0  0  0  0  0  1  0  0  0  0  0  0
  -12.2880   20.8180  -12.7860 C   0  0  0  0  0  2  0  0  0  0  0  0
  -13.1970   20.2990  -11.6670 C   0  0  0  0  0  2  0  0  0  0  0  0
  -14.1910   19.2920  -12.1620 C   0  0  0  0  0  0  0  0  0  0  0  0
  -14.7910   18.4600  -11.0770 C   0  0  0  0  0  1  0  0  0  0  0  0
  2 22  1  0  0  0  0
  2  1  2  0  0  0  0
  3  4  2  0  0  0  0
  3  1  1  0  0  0  0
  4  5  1  0  0  0  0
  6  7  2  0  0  0  0
  6  4  1  0  0  0  0
  8  7  1  0  0  0  0
  8  9  2  0  0  0  0
  9 10  1  0  0  0  0
 11  9  1  0  0  0  0
 12 11  2  0  0  0  0
 13 12  1  0  0  0  0
 13 20  2  0  0  0  0
 14 13  1  0  0  0  0
 15 14  1  0  0  0  0
 15 18  1  0  0  0  0
 16 14  1  0  0  0  0
 17 14  1  0  0  0  0
 18 19  1  0  0  0  0
 19 20  1  0  0  0  0
 20 21  1  0  0  0  0
 23 25  1  0  0  0  0
 23 22  2  0  0  0  0
 24 23  1  0  0  0  0
 25 26  2  0  0  0  0
 26 27  1  0  0  0  0
 27 28  2  0  0  0  0
 28 30  1  0  0  0  0
 29 28  1  0  0  0  0
 30 31  2  0  0  0  0
 31 32  1  0  0  0  0
 32 39  2  0  0  0  0
 33 34  1  0  0  0  0
 33 32  1  0  0  0  0
 34 37  1  0  0  0  0
 35 33  1  0  0  0  0
 36 33  1  0  0  0  0
 37 38  1  0  0  0  0
 39 38  1  0  0  0  0
 39 40  1  0  0  0  0
M  END
>  <MODEL>
10

>  <REMARK>
 VINA RESULT:    -7.561     16.995     24.056
 INTER + INTRA:         -13.290
 INTER:                 -11.733
 INTRA:                  -1.557
 UNBOUND:                -1.310
  10 active torsions:
  status: ('A' for Active; 'I' for Inactive)
    1  A    between atoms: C7_7  and  C17_17 
    2  A    between atoms: C8_8  and  C18_18 
    3  A    between atoms: C21_21  and  C23_23 
    4  A    between atoms: C22_22  and  C24_24 
    5  A    between atoms: C27_27  and  C29_29 
    6  A    between atoms: C28_28  and  C30_30 
    7  A    between atoms: C31_31  and  C33_33 
    8  A    between atoms: C32_32  and  C34_34 
    9  A    between atoms: C37_37  and  C39_39 
   10  A    between atoms: C38_38  and  C40_40 

>  <TORSDO>
F 10

$$$$
./CarotenoB.pdbqt
 OpenBabel10282519553D

 40 41  0  0  0  0  0  0  0  0999 V2000
  -44.7150   20.9700    4.5260 C   0  0  0  0  0  3  0  0  0  0  0  0
  -45.7800   20.8090    5.3350 C   0  0  0  0  0  3  0  0  0  0  0  0
  -44.3510   22.2620    3.9790 C   0  0  0  0  0  3  0  0  0  0  0  0
  -43.4200   23.0840    4.5050 C   0  0  0  0  0  0  0  0  0  0  0  0
  -42.6210   22.7500    5.7210 C   0  0  0  0  0  1  0  0  0  0  0  0
  -43.1670   24.3800    3.8770 C   0  0  0  0  0  3  0  0  0  0  0  0
  -41.9530   24.9540    3.8280 C   0  0  0  0  0  3  0  0  0  0  0  0
  -41.7340   26.2520    3.2200 C   0  0  0  0  0  3  0  0  0  0  0  0
  -41.6240   27.4050    3.9100 C   0  0  0  0  0  0  0  0  0  0  0  0
  -41.7220   27.4940    5.3950 C   0  0  0  0  0  1  0  0  0  0  0  0
  -41.3840   28.6590    3.1930 C   0  0  0  0  0  3  0  0  0  0  0  0
  -41.6570   29.8620    3.7130 C   0  0  0  0  0  3  0  0  0  0  0  0
  -41.3860   31.1130    2.9960 C   0  0  0  0  0  0  0  0  0  0  0  0
  -40.2130   31.9060    3.5270 C   0  0  0  0  0  0  0  0  0  0  0  0
  -39.7920   33.0080    2.5270 C   0  0  0  0  0  2  0  0  0  0  0  0
  -40.6190   32.5450    4.8680 C   0  0  0  0  0  1  0  0  0  0  0  0
  -39.0040   30.9780    3.7530 C   0  0  0  0  0  1  0  0  0  0  0  0
  -41.0110   33.7450    1.9700 C   0  0  0  0  0  2  0  0  0  0  0  0
  -41.8940   32.7640    1.1910 C   0  0  0  0  0  2  0  0  0  0  0  0
  -42.1430   31.5030    1.9600 C   0  0  0  0  0  0  0  0  0  0  0  0
  -43.3070   30.7050    1.4680 C   0  0  0  0  0  1  0  0  0  0  0  0
  -46.1420   19.5190    5.8880 C   0  0  0  0  0  3  0  0  0  0  0  0
  -46.7320   19.3410    7.0890 C   0  0  0  0  0  0  0  0  0  0  0  0
  -47.1140   20.4640    7.9940 C   0  0  0  0  0  1  0  0  0  0  0  0
  -47.0160   17.9860    7.5620 C   0  0  0  0  0  3  0  0  0  0  0  0
  -47.0070   17.6460    8.8620 C   0  0  0  0  0  3  0  0  0  0  0  0
  -47.2670   16.2920    9.3140 C   0  0  0  0  0  3  0  0  0  0  0  0
  -46.8790   15.8020   10.5080 C   0  0  0  0  0  0  0  0  0  0  0  0
  -46.1100   16.5960   11.5120 C   0  0  0  0  0  1  0  0  0  0  0  0
  -47.2150   14.4250   10.8700 C   0  0  0  0  0  3  0  0  0  0  0  0
  -48.2270   14.1060   11.6890 C   0  0  0  0  0  3  0  0  0  0  0  0
  -48.5760   12.7220   12.0240 C   0  0  0  0  0  0  0  0  0  0  0  0
  -48.0480   12.2570   13.3640 C   0  0  0  0  0  0  0  0  0  0  0  0
  -48.7290   10.9400   13.8000 C   0  0  0  0  0  2  0  0  0  0  0  0
  -46.5260   12.0450   13.2480 C   0  0  0  0  0  1  0  0  0  0  0  0
  -48.3320   13.3190   14.4430 C   0  0  0  0  0  1  0  0  0  0  0  0
  -48.7880    9.9410   12.6430 C   0  0  0  0  0  2  0  0  0  0  0  0
  -49.6380   10.5190   11.5070 C   0  0  0  0  0  2  0  0  0  0  0  0
  -49.2660   11.9350   11.1840 C   0  0  0  0  0  0  0  0  0  0  0  0
  -49.7440   12.3880    9.8430 C   0  0  0  0  0  1  0  0  0  0  0  0
  1  2  2  0  0  0  0
  2 22  1  0  0  0  0
  3  4  2  0  0  0  0
  3  1  1  0  0  0  0
  4  5  1  0  0  0  0
  6  4  1  0  0  0  0
  7  6  2  0  0  0  0
  8  7  1  0  0  0  0
  8  9  2  0  0  0  0
  9 10  1  0  0  0  0
 11 12  2  0  0  0  0
 11  9  1  0  0  0  0
 13 14  1  0  0  0  0
 13 12  1  0  0  0  0
 14 17  1  0  0  0  0
 14 16  1  0  0  0  0
 15 14  1  0  0  0  0
 18 15  1  0  0  0  0
 19 20  1  0  0  0  0
 19 18  1  0  0  0  0
 20 13  2  0  0  0  0
 21 20  1  0  0  0  0
 22 23  2  0  0  0  0
 23 25  1  0  0  0  0
 23 24  1  0  0  0  0
 25 26  2  0  0  0  0
 26 27  1  0  0  0  0
 27 28  2  0  0  0  0
 28 30  1  0  0  0  0
 28 29  1  0  0  0  0
 30 31  2  0  0  0  0
 31 32  1  0  0  0  0
 32 33  1  0  0  0  0
 33 34  1  0  0  0  0
 33 36  1  0  0  0  0
 35 33  1  0  0  0  0
 37 34  1  0  0  0  0
 38 37  1  0  0  0  0
 39 38  1  0  0  0  0
 39 32  2  0  0  0  0
 40 39  1  0  0  0  0
M  END
>  <MODEL>
11

>  <REMARK>
 VINA RESULT:    -7.552     23.981     26.155
 INTER + INTRA:         -13.276
 INTER:                 -11.832
 INTRA:                  -1.444
 UNBOUND:                -1.310
  10 active torsions:
  status: ('A' for Active; 'I' for Inactive)
    1  A    between atoms: C7_7  and  C17_17 
    2  A    between atoms: C8_8  and  C18_18 
    3  A    between atoms: C21_21  and  C23_23 
    4  A    between atoms: C22_22  and  C24_24 
    5  A    between atoms: C27_27  and  C29_29 
    6  A    between atoms: C28_28  and  C30_30 
    7  A    between atoms: C31_31  and  C33_33 
    8  A    between atoms: C32_32  and  C34_34 
    9  A    between atoms: C37_37  and  C39_39 
   10  A    between atoms: C38_38  and  C40_40 

>  <TORSDO>
F 10

$$$$
./CarotenoB.pdbqt
 OpenBabel10282519553D

 40 41  0  0  0  0  0  0  0  0999 V2000
  -44.1010   21.6490    5.1690 C   0  0  0  0  0  3  0  0  0  0  0  0
  -45.3950   21.2950    5.2900 C   0  0  0  0  0  3  0  0  0  0  0  0
  -43.6990   22.9180    4.5970 C   0  0  0  0  0  3  0  0  0  0  0  0
  -43.6250   23.1780    3.2750 C   0  0  0  0  0  0  0  0  0  0  0  0
  -43.9760   22.1800    2.2220 C   0  0  0  0  0  1  0  0  0  0  0  0
  -43.1720   24.4920    2.8230 C   0  0  0  0  0  3  0  0  0  0  0  0
  -42.2410   25.2150    3.4670 C   0  0  0  0  0  3  0  0  0  0  0  0
  -41.8260   26.5280    3.0110 C   0  0  0  0  0  3  0  0  0  0  0  0
  -41.6230   27.5840    3.8220 C   0  0  0  0  0  0  0  0  0  0  0  0
  -41.8070   27.5410    5.3010 C   0  0  0  0  0  1  0  0  0  0  0  0
  -41.1850   28.8620    3.2530 C   0  0  0  0  0  3  0  0  0  0  0  0
  -41.3690   30.0360    3.8690 C   0  0  0  0  0  3  0  0  0  0  0  0
  -40.9010   31.3060    3.3030 C   0  0  0  0  0  0  0  0  0  0  0  0
  -41.8870   31.9930    2.3850 C   0  0  0  0  0  0  0  0  0  0  0  0
  -41.4650   33.4550    2.1130 C   0  0  0  0  0  2  0  0  0  0  0  0
  -41.9510   31.2120    1.0600 C   0  0  0  0  0  1  0  0  0  0  0  0
  -43.2860   32.0120    3.0300 C   0  0  0  0  0  1  0  0  0  0  0  0
  -39.9670   33.5520    1.8190 C   0  0  0  0  0  2  0  0  0  0  0  0
  -39.1700   33.0900    3.0440 C   0  0  0  0  0  2  0  0  0  0  0  0
  -39.6840   31.7920    3.5880 C   0  0  0  0  0  0  0  0  0  0  0  0
  -38.7240   31.0810    4.4870 C   0  0  0  0  0  1  0  0  0  0  0  0
  -45.7990   20.0290    5.8680 C   0  0  0  0  0  3  0  0  0  0  0  0
  -46.6730   19.8980    6.8870 C   0  0  0  0  0  0  0  0  0  0  0  0
  -47.3610   21.0520    7.5350 C   0  0  0  0  0  1  0  0  0  0  0  0
  -46.9770   18.5680    7.4150 C   0  0  0  0  0  3  0  0  0  0  0  0
  -46.9770   18.2830    8.7280 C   0  0  0  0  0  3  0  0  0  0  0  0
  -47.2560   16.9520    9.2350 C   0  0  0  0  0  3  0  0  0  0  0  0
  -46.7420   16.4510   10.3760 C   0  0  0  0  0  0  0  0  0  0  0  0
  -45.7990   17.2050   11.2550 C   0  0  0  0  0  1  0  0  0  0  0  0
  -47.1100   15.1010   10.8040 C   0  0  0  0  0  3  0  0  0  0  0  0
  -48.0960   14.8490   11.6760 C   0  0  0  0  0  3  0  0  0  0  0  0
  -48.4780   13.4920   12.0790 C   0  0  0  0  0  0  0  0  0  0  0  0
  -49.6710   12.9360   11.3320 C   0  0  0  0  0  0  0  0  0  0  0  0
  -49.8000   11.4120   11.5520 C   0  0  0  0  0  2  0  0  0  0  0  0
  -50.9420   13.6460   11.8360 C   0  0  0  0  0  1  0  0  0  0  0  0
  -49.5130   13.1870    9.8200 C   0  0  0  0  0  1  0  0  0  0  0  0
  -49.6190   11.0510   13.0270 C   0  0  0  0  0  2  0  0  0  0  0  0
  -48.2100   11.4420   13.4840 C   0  0  0  0  0  2  0  0  0  0  0  0
  -47.8400   12.8320   13.0590 C   0  0  0  0  0  0  0  0  0  0  0  0
  -46.6930   13.4060   13.8220 C   0  0  0  0  0  1  0  0  0  0  0  0
  1  2  2  0  0  0  0
  2 22  1  0  0  0  0
  3  1  1  0  0  0  0
  4  3  2  0  0  0  0
  5  4  1  0  0  0  0
  6  4  1  0  0  0  0
  6  7  2  0  0  0  0
  8  7  1  0  0  0  0
  8  9  2  0  0  0  0
  9 10  1  0  0  0  0
 11  9  1  0  0  0  0
 11 12  2  0  0  0  0
 13 20  2  0  0  0  0
 13 12  1  0  0  0  0
 14 17  1  0  0  0  0
 14 13  1  0  0  0  0
 15 14  1  0  0  0  0
 16 14  1  0  0  0  0
 18 15  1  0  0  0  0
 18 19  1  0  0  0  0
 19 20  1  0  0  0  0
 20 21  1  0  0  0  0
 22 23  2  0  0  0  0
 23 25  1  0  0  0  0
 23 24  1  0  0  0  0
 25 26  2  0  0  0  0
 26 27  1  0  0  0  0
 27 28  2  0  0  0  0
 28 30  1  0  0  0  0
 28 29  1  0  0  0  0
 30 31  2  0  0  0  0
 31 32  1  0  0  0  0
 32 39  2  0  0  0  0
 33 34  1  0  0  0  0
 33 35  1  0  0  0  0
 33 32  1  0  0  0  0
 34 37  1  0  0  0  0
 36 33  1  0  0  0  0
 37 38  1  0  0  0  0
 39 38  1  0  0  0  0
 39 40  1  0  0  0  0
M  END
>  <MODEL>
12

>  <REMARK>
 VINA RESULT:    -7.493     23.712     25.915
 INTER + INTRA:         -13.184
 INTER:                 -11.780
 INTRA:                  -1.403
 UNBOUND:                -1.310
  10 active torsions:
  status: ('A' for Active; 'I' for Inactive)
    1  A    between atoms: C7_7  and  C17_17 
    2  A    between atoms: C8_8  and  C18_18 
    3  A    between atoms: C21_21  and  C23_23 
    4  A    between atoms: C22_22  and  C24_24 
    5  A    between atoms: C27_27  and  C29_29 
    6  A    between atoms: C28_28  and  C30_30 
    7  A    between atoms: C31_31  and  C33_33 
    8  A    between atoms: C32_32  and  C34_34 
    9  A    between atoms: C37_37  and  C39_39 
   10  A    between atoms: C38_38  and  C40_40 

>  <TORSDO>
F 10

$$$$
./CarotenoB.pdbqt
 OpenBabel10282519553D

 40 41  0  0  0  0  0  0  0  0999 V2000
  -40.9450   28.7840  -18.3530 C   0  0  0  0  0  3  0  0  0  0  0  0
  -40.7250   28.1810  -17.1690 C   0  0  0  0  0  3  0  0  0  0  0  0
  -42.1380   29.5660  -18.6100 C   0  0  0  0  0  3  0  0  0  0  0  0
  -42.1880   30.6550  -19.4060 C   0  0  0  0  0  0  0  0  0  0  0  0
  -41.0070   31.1820  -20.1500 C   0  0  0  0  0  1  0  0  0  0  0  0
  -43.4480   31.3800  -19.5570 C   0  0  0  0  0  3  0  0  0  0  0  0
  -43.7370   32.5090  -18.8890 C   0  0  0  0  0  3  0  0  0  0  0  0
  -45.0050   33.1960  -19.0400 C   0  0  0  0  0  3  0  0  0  0  0  0
  -45.8130   33.5300  -18.0150 C   0  0  0  0  0  0  0  0  0  0  0  0
  -45.5080   33.2290  -16.5860 C   0  0  0  0  0  1  0  0  0  0  0  0
  -47.0660   34.2410  -18.2810 C   0  0  0  0  0  3  0  0  0  0  0  0
  -47.4770   35.2920  -17.5610 C   0  0  0  0  0  3  0  0  0  0  0  0
  -48.7200   36.0140  -17.8550 C   0  0  0  0  0  0  0  0  0  0  0  0
  -49.9670   35.3960  -17.2650 C   0  0  0  0  0  0  0  0  0  0  0  0
  -51.1570   36.3810  -17.3290 C   0  0  0  0  0  2  0  0  0  0  0  0
  -50.3040   34.1180  -18.0550 C   0  0  0  0  0  1  0  0  0  0  0  0
  -49.7290   35.0300  -15.7880 C   0  0  0  0  0  1  0  0  0  0  0  0
  -51.2300   37.0720  -18.6920 C   0  0  0  0  0  2  0  0  0  0  0  0
  -49.9630   37.9050  -18.9160 C   0  0  0  0  0  2  0  0  0  0  0  0
  -48.7210   37.1280  -18.6010 C   0  0  0  0  0  0  0  0  0  0  0  0
  -47.4730   37.7070  -19.1860 C   0  0  0  0  0  1  0  0  0  0  0  0
  -39.5300   27.4040  -16.9080 C   0  0  0  0  0  3  0  0  0  0  0  0
  -39.4310   26.0700  -17.0900 C   0  0  0  0  0  0  0  0  0  0  0  0
  -40.5430   25.2250  -17.6140 C   0  0  0  0  0  1  0  0  0  0  0  0
  -38.1830   25.3840  -16.7550 C   0  0  0  0  0  3  0  0  0  0  0  0
  -38.0460   24.5960  -15.6750 C   0  0  0  0  0  3  0  0  0  0  0  0
  -36.7940   23.9430  -15.3430 C   0  0  0  0  0  3  0  0  0  0  0  0
  -36.6950   22.6810  -14.8810 C   0  0  0  0  0  0  0  0  0  0  0  0
  -37.8750   21.8000  -14.6350 C   0  0  0  0  0  1  0  0  0  0  0  0
  -35.3760   22.1130  -14.6000 C   0  0  0  0  0  3  0  0  0  0  0  0
  -34.2280   22.7480  -14.8720 C   0  0  0  0  0  3  0  0  0  0  0  0
  -32.9110   22.1850  -14.5610 C   0  0  0  0  0  0  0  0  0  0  0  0
  -32.3310   21.3190  -15.6590 C   0  0  0  0  0  0  0  0  0  0  0  0
  -30.8290   21.0490  -15.4150 C   0  0  0  0  0  2  0  0  0  0  0  0
  -33.1030   19.9860  -15.6940 C   0  0  0  0  0  1  0  0  0  0  0  0
  -32.4740   22.0250  -17.0200 C   0  0  0  0  0  1  0  0  0  0  0  0
  -30.5670   20.6660  -13.9580 C   0  0  0  0  0  2  0  0  0  0  0  0
  -30.9580   21.8300  -13.0420 C   0  0  0  0  0  2  0  0  0  0  0  0
  -32.3060   22.3920  -13.3810 C   0  0  0  0  0  0  0  0  0  0  0  0
  -32.9060   23.2100  -12.2850 C   0  0  0  0  0  1  0  0  0  0  0  0
  1  2  2  0  0  0  0
  2 22  1  0  0  0  0
  3  1  1  0  0  0  0
  4  3  2  0  0  0  0
  5  4  1  0  0  0  0
  6  4  1  0  0  0  0
  6  7  2  0  0  0  0
  8  7  1  0  0  0  0
  8  9  2  0  0  0  0
  9 10  1  0  0  0  0
 11  9  1  0  0  0  0
 11 12  2  0  0  0  0
 13 12  1  0  0  0  0
 13 14  1  0  0  0  0
 14 17  1  0  0  0  0
 15 14  1  0  0  0  0
 16 14  1  0  0  0  0
 18 15  1  0  0  0  0
 19 18  1  0  0  0  0
 19 20  1  0  0  0  0
 20 13  2  0  0  0  0
 21 20  1  0  0  0  0
 23 22  2  0  0  0  0
 23 25  1  0  0  0  0
 24 23  1  0  0  0  0
 25 26  2  0  0  0  0
 26 27  1  0  0  0  0
 27 28  2  0  0  0  0
 28 29  1  0  0  0  0
 28 30  1  0  0  0  0
 31 30  2  0  0  0  0
 31 32  1  0  0  0  0
 32 39  2  0  0  0  0
 33 34  1  0  0  0  0
 33 32  1  0  0  0  0
 34 37  1  0  0  0  0
 35 33  1  0  0  0  0
 36 33  1  0  0  0  0
 37 38  1  0  0  0  0
 39 38  1  0  0  0  0
 39 40  1  0  0  0  0
M  END
>  <MODEL>
13

>  <REMARK>
 VINA RESULT:    -7.493      9.467     19.290
 INTER + INTRA:         -13.183
 INTER:                 -11.654
 INTRA:                  -1.529
 UNBOUND:                -1.310
  10 active torsions:
  status: ('A' for Active; 'I' for Inactive)
    1  A    between atoms: C7_7  and  C17_17 
    2  A    between atoms: C8_8  and  C18_18 
    3  A    between atoms: C21_21  and  C23_23 
    4  A    between atoms: C22_22  and  C24_24 
    5  A    between atoms: C27_27  and  C29_29 
    6  A    between atoms: C28_28  and  C30_30 
    7  A    between atoms: C31_31  and  C33_33 
    8  A    between atoms: C32_32  and  C34_34 
    9  A    between atoms: C37_37  and  C39_39 
   10  A    between atoms: C38_38  and  C40_40 

>  <TORSDO>
F 10

$$$$
./CarotenoB.pdbqt
 OpenBabel10282519553D

 40 41  0  0  0  0  0  0  0  0999 V2000
  -21.7980   10.9800  -15.9020 C   0  0  0  0  0  3  0  0  0  0  0  0
  -21.7480   12.1770  -16.5190 C   0  0  0  0  0  3  0  0  0  0  0  0
  -22.7210    9.9400  -16.3110 C   0  0  0  0  0  3  0  0  0  0  0  0
  -22.6400    8.6470  -15.9340 C   0  0  0  0  0  0  0  0  0  0  0  0
  -21.5850    8.1240  -15.0160 C   0  0  0  0  0  1  0  0  0  0  0  0
  -23.6160    7.6860  -16.4430 C   0  0  0  0  0  3  0  0  0  0  0  0
  -23.6330    6.3910  -16.0880 C   0  0  0  0  0  3  0  0  0  0  0  0
  -24.5990    5.4520  -16.6270 C   0  0  0  0  0  3  0  0  0  0  0  0
  -24.4250    4.1160  -16.6530 C   0  0  0  0  0  0  0  0  0  0  0  0
  -23.2080    3.4280  -16.1340 C   0  0  0  0  0  1  0  0  0  0  0  0
  -25.4770    3.2590  -17.2050 C   0  0  0  0  0  3  0  0  0  0  0  0
  -26.7790    3.4480  -16.9560 C   0  0  0  0  0  3  0  0  0  0  0  0
  -27.8250    2.6000  -17.5380 C   0  0  0  0  0  0  0  0  0  0  0  0
  -28.1900    1.3860  -16.7130 C   0  0  0  0  0  0  0  0  0  0  0  0
  -29.5070    0.7510  -17.2150 C   0  0  0  0  0  2  0  0  0  0  0  0
  -27.0450    0.3620  -16.8130 C   0  0  0  0  0  1  0  0  0  0  0  0
  -28.3840    1.7860  -15.2390 C   0  0  0  0  0  1  0  0  0  0  0  0
  -29.5310    0.6600  -18.7420 C   0  0  0  0  0  2  0  0  0  0  0  0
  -29.4700    2.0680  -19.3430 C   0  0  0  0  0  2  0  0  0  0  0  0
  -28.3900    2.8970  -18.7180 C   0  0  0  0  0  0  0  0  0  0  0  0
  -27.9970    4.0960  -19.5190 C   0  0  0  0  0  1  0  0  0  0  0  0
  -20.8210   13.2150  -16.1170 C   0  0  0  0  0  3  0  0  0  0  0  0
  -20.5180   14.2990  -16.8600 C   0  0  0  0  0  0  0  0  0  0  0  0
  -21.1280   14.5810  -18.1930 C   0  0  0  0  0  1  0  0  0  0  0  0
  -19.5350   15.2650  -16.3680 C   0  0  0  0  0  3  0  0  0  0  0  0
  -18.2600   14.9400  -16.0990 C   0  0  0  0  0  3  0  0  0  0  0  0
  -17.3040   15.9040  -15.5870 C   0  0  0  0  0  3  0  0  0  0  0  0
  -16.4140   16.5710  -16.3500 C   0  0  0  0  0  0  0  0  0  0  0  0
  -16.2920   16.3820  -17.8260 C   0  0  0  0  0  1  0  0  0  0  0  0
  -15.5100   17.5390  -15.7300 C   0  0  0  0  0  3  0  0  0  0  0  0
  -15.7030   18.0480  -14.5050 C   0  0  0  0  0  3  0  0  0  0  0  0
  -14.7770   18.9970  -13.8800 C   0  0  0  0  0  0  0  0  0  0  0  0
  -14.0700   18.4570  -12.6560 C   0  0  0  0  0  0  0  0  0  0  0  0
  -12.8800   19.3610  -12.2610 C   0  0  0  0  0  2  0  0  0  0  0  0
  -15.0800   18.3860  -11.4940 C   0  0  0  0  0  1  0  0  0  0  0  0
  -13.5220   17.0450  -12.9400 C   0  0  0  0  0  1  0  0  0  0  0  0
  -13.2740   20.8380  -12.2940 C   0  0  0  0  0  2  0  0  0  0  0  0
  -13.6710   21.2330  -13.7200 C   0  0  0  0  0  2  0  0  0  0  0  0
  -14.6160   20.2470  -14.3400 C   0  0  0  0  0  0  0  0  0  0  0  0
  -15.3520   20.7870  -15.5220 C   0  0  0  0  0  1  0  0  0  0  0  0
  2 22  1  0  0  0  0
  2  1  2  0  0  0  0
  3  4  2  0  0  0  0
  3  1  1  0  0  0  0
  4  5  1  0  0  0  0
  6  7  2  0  0  0  0
  6  4  1  0  0  0  0
  8  7  1  0  0  0  0
  9  8  2  0  0  0  0
  9 10  1  0  0  0  0
 11 12  2  0  0  0  0
 11  9  1  0  0  0  0
 13 12  1  0  0  0  0
 13 14  1  0  0  0  0
 14 17  1  0  0  0  0
 15 14  1  0  0  0  0
 16 14  1  0  0  0  0
 18 15  1  0  0  0  0
 19 18  1  0  0  0  0
 19 20  1  0  0  0  0
 20 13  2  0  0  0  0
 21 20  1  0  0  0  0
 23 25  1  0  0  0  0
 23 22  2  0  0  0  0
 24 23  1  0  0  0  0
 25 26  2  0  0  0  0
 26 27  1  0  0  0  0
 28 30  1  0  0  0  0
 28 27  2  0  0  0  0
 29 28  1  0  0  0  0
 30 31  2  0  0  0  0
 31 32  1  0  0  0  0
 32 33  1  0  0  0  0
 33 34  1  0  0  0  0
 33 35  1  0  0  0  0
 36 33  1  0  0  0  0
 37 34  1  0  0  0  0
 38 37  1  0  0  0  0
 39 32  2  0  0  0  0
 39 38  1  0  0  0  0
 40 39  1  0  0  0  0
M  END
>  <MODEL>
14

>  <REMARK>
 VINA RESULT:    -7.458     16.809     23.894
 INTER + INTRA:         -13.128
 INTER:                 -11.655
 INTRA:                  -1.472
 UNBOUND:                -1.310
  10 active torsions:
  status: ('A' for Active; 'I' for Inactive)
    1  A    between atoms: C7_7  and  C17_17 
    2  A    between atoms: C8_8  and  C18_18 
    3  A    between atoms: C21_21  and  C23_23 
    4  A    between atoms: C22_22  and  C24_24 
    5  A    between atoms: C27_27  and  C29_29 
    6  A    between atoms: C28_28  and  C30_30 
    7  A    between atoms: C31_31  and  C33_33 
    8  A    between atoms: C32_32  and  C34_34 
    9  A    between atoms: C37_37  and  C39_39 
   10  A    between atoms: C38_38  and  C40_40 

>  <TORSDO>
F 10

$$$$
./CarotenoB.pdbqt
 OpenBabel10282519553D

 40 41  0  0  0  0  0  0  0  0999 V2000
  -40.9820   27.8230  -17.3000 C   0  0  0  0  0  3  0  0  0  0  0  0
  -42.0170   27.8630  -16.4380 C   0  0  0  0  0  3  0  0  0  0  0  0
  -39.8140   26.9980  -17.0640 C   0  0  0  0  0  3  0  0  0  0  0  0
  -39.6570   25.7380  -17.5190 C   0  0  0  0  0  0  0  0  0  0  0  0
  -40.6740   25.0340  -18.3540 C   0  0  0  0  0  1  0  0  0  0  0  0
  -38.4430   24.9970  -17.1830 C   0  0  0  0  0  3  0  0  0  0  0  0
  -38.0580   24.7400  -15.9220 C   0  0  0  0  0  3  0  0  0  0  0  0
  -36.8350   24.0230  -15.6160 C   0  0  0  0  0  3  0  0  0  0  0  0
  -36.6870   23.1860  -14.5710 C   0  0  0  0  0  0  0  0  0  0  0  0
  -37.7670   22.8930  -13.5840 C   0  0  0  0  0  1  0  0  0  0  0  0
  -35.4100   22.4980  -14.3670 C   0  0  0  0  0  3  0  0  0  0  0  0
  -34.2240   23.0780  -14.5900 C   0  0  0  0  0  3  0  0  0  0  0  0
  -32.9510   22.3880  -14.3550 C   0  0  0  0  0  0  0  0  0  0  0  0
  -32.4850   21.5110  -15.4950 C   0  0  0  0  0  0  0  0  0  0  0  0
  -31.0040   21.1040  -15.3110 C   0  0  0  0  0  2  0  0  0  0  0  0
  -33.3710   20.2530  -15.5410 C   0  0  0  0  0  1  0  0  0  0  0  0
  -32.6090   22.2680  -16.8310 C   0  0  0  0  0  1  0  0  0  0  0  0
  -30.7230   20.6780  -13.8690 C   0  0  0  0  0  2  0  0  0  0  0  0
  -30.9700   21.8610  -12.9260 C   0  0  0  0  0  2  0  0  0  0  0  0
  -32.2790   22.5350  -13.2040 C   0  0  0  0  0  0  0  0  0  0  0  0
  -32.7740   23.3970  -12.0870 C   0  0  0  0  0  1  0  0  0  0  0  0
  -43.1890   28.6810  -16.6750 C   0  0  0  0  0  3  0  0  0  0  0  0
  -44.0770   29.0380  -15.7240 C   0  0  0  0  0  0  0  0  0  0  0  0
  -43.9450   28.6540  -14.2880 C   0  0  0  0  0  1  0  0  0  0  0  0
  -45.2470   29.8370  -16.0890 C   0  0  0  0  0  3  0  0  0  0  0  0
  -45.5030   31.0470  -15.5630 C   0  0  0  0  0  3  0  0  0  0  0  0
  -46.6820   31.8150  -15.9160 C   0  0  0  0  0  3  0  0  0  0  0  0
  -46.6590   32.9490  -16.6430 C   0  0  0  0  0  0  0  0  0  0  0  0
  -45.4040   33.5690  -17.1620 C   0  0  0  0  0  1  0  0  0  0  0  0
  -47.9140   33.6320  -16.9610 C   0  0  0  0  0  3  0  0  0  0  0  0
  -48.1590   34.9090  -16.6380 C   0  0  0  0  0  3  0  0  0  0  0  0
  -49.4080   35.5940  -16.9850 C   0  0  0  0  0  0  0  0  0  0  0  0
  -49.2360   36.7420  -17.9570 C   0  0  0  0  0  0  0  0  0  0  0  0
  -50.5980   37.1850  -18.5360 C   0  0  0  0  0  2  0  0  0  0  0  0
  -48.5740   37.9200  -17.2160 C   0  0  0  0  0  1  0  0  0  0  0  0
  -48.3370   36.3110  -19.1310 C   0  0  0  0  0  1  0  0  0  0  0  0
  -51.6530   37.3030  -17.4350 C   0  0  0  0  0  2  0  0  0  0  0  0
  -51.8770   35.9320  -16.7870 C   0  0  0  0  0  2  0  0  0  0  0  0
  -50.5870   35.2490  -16.4440 C   0  0  0  0  0  0  0  0  0  0  0  0
  -50.7410   34.1450  -15.4500 C   0  0  0  0  0  1  0  0  0  0  0  0
  1  3  1  0  0  0  0
  1  2  2  0  0  0  0
  4  6  1  0  0  0  0
  4  3  2  0  0  0  0
  5  4  1  0  0  0  0
  6  7  2  0  0  0  0
  7  8  1  0  0  0  0
  8  9  2  0  0  0  0
  9 11  1  0  0  0  0
  9 10  1  0  0  0  0
 12 11  2  0  0  0  0
 12 13  1  0  0  0  0
 13 20  2  0  0  0  0
 14 15  1  0  0  0  0
 14 13  1  0  0  0  0
 15 18  1  0  0  0  0
 16 14  1  0  0  0  0
 17 14  1  0  0  0  0
 18 19  1  0  0  0  0
 20 19  1  0  0  0  0
 20 21  1  0  0  0  0
 22  2  1  0  0  0  0
 22 23  2  0  0  0  0
 23 24  1  0  0  0  0
 25 23  1  0  0  0  0
 25 26  2  0  0  0  0
 27 26  1  0  0  0  0
 28 27  2  0  0  0  0
 29 28  1  0  0  0  0
 30 28  1  0  0  0  0
 30 31  2  0  0  0  0
 32 31  1  0  0  0  0
 32 39  2  0  0  0  0
 33 35  1  0  0  0  0
 33 32  1  0  0  0  0
 34 33  1  0  0  0  0
 34 37  1  0  0  0  0
 36 33  1  0  0  0  0
 37 38  1  0  0  0  0
 38 39  1  0  0  0  0
 39 40  1  0  0  0  0
M  END
>  <MODEL>
15

>  <REMARK>
 VINA RESULT:    -7.453      9.379     13.383
 INTER + INTRA:         -13.120
 INTER:                 -11.647
 INTRA:                  -1.473
 UNBOUND:                -1.310
  10 active torsions:
  status: ('A' for Active; 'I' for Inactive)
    1  A    between atoms: C7_7  and  C17_17 
    2  A    between atoms: C8_8  and  C18_18 
    3  A    between atoms: C21_21  and  C23_23 
    4  A    between atoms: C22_22  and  C24_24 
    5  A    between atoms: C27_27  and  C29_29 
    6  A    between atoms: C28_28  and  C30_30 
    7  A    between atoms: C31_31  and  C33_33 
    8  A    between atoms: C32_32  and  C34_34 
    9  A    between atoms: C37_37  and  C39_39 
   10  A    between atoms: C38_38  and  C40_40 

>  <TORSDO>
F 10

$$$$
./CarotenoB.pdbqt
 OpenBabel10282519553D

 40 41  0  0  0  0  0  0  0  0999 V2000
  -16.8610   15.9580  -15.4210 C   0  0  0  0  0  3  0  0  0  0  0  0
  -18.1810   16.0670  -15.6660 C   0  0  0  0  0  3  0  0  0  0  0  0
  -16.0100   17.1180  -15.2520 C   0  0  0  0  0  3  0  0  0  0  0  0
  -15.4890   17.5250  -14.0760 C   0  0  0  0  0  0  0  0  0  0  0  0
  -15.7090   16.8050  -12.7870 C   0  0  0  0  0  1  0  0  0  0  0  0
  -14.6700   18.7350  -14.0310 C   0  0  0  0  0  3  0  0  0  0  0  0
  -14.4100   19.4110  -12.8990 C   0  0  0  0  0  3  0  0  0  0  0  0
  -13.6140   20.6230  -12.8860 C   0  0  0  0  0  3  0  0  0  0  0  0
  -13.3290   21.3320  -11.7760 C   0  0  0  0  0  0  0  0  0  0  0  0
  -13.8050   20.9630  -10.4120 C   0  0  0  0  0  1  0  0  0  0  0  0
  -12.4970   22.5340  -11.8770 C   0  0  0  0  0  3  0  0  0  0  0  0
  -13.0070   23.7690  -11.9570 C   0  0  0  0  0  3  0  0  0  0  0  0
  -12.1630   24.9680  -12.0290 C   0  0  0  0  0  0  0  0  0  0  0  0
  -12.4490   26.0080  -10.9690 C   0  0  0  0  0  0  0  0  0  0  0  0
  -11.3150   27.0580  -10.9040 C   0  0  0  0  0  2  0  0  0  0  0  0
  -13.7830   26.7000  -11.3060 C   0  0  0  0  0  1  0  0  0  0  0  0
  -12.5610   25.3390   -9.5860 C   0  0  0  0  0  1  0  0  0  0  0  0
  -10.8940   27.5040  -12.3050 C   0  0  0  0  0  2  0  0  0  0  0  0
  -10.3340   26.3070  -13.0810 C   0  0  0  0  0  2  0  0  0  0  0  0
  -11.2260   25.1070  -12.9780 C   0  0  0  0  0  0  0  0  0  0  0  0
  -10.9780   24.0680  -14.0230 C   0  0  0  0  0  1  0  0  0  0  0  0
  -19.0360   14.9080  -15.8290 C   0  0  0  0  0  3  0  0  0  0  0  0
  -19.7010   14.6030  -16.9620 C   0  0  0  0  0  0  0  0  0  0  0  0
  -19.6170   15.4140  -18.2110 C   0  0  0  0  0  1  0  0  0  0  0  0
  -20.5690   13.4250  -16.9980 C   0  0  0  0  0  3  0  0  0  0  0  0
  -21.0650   12.8450  -15.8920 C   0  0  0  0  0  3  0  0  0  0  0  0
  -21.9030   11.6620  -15.9440 C   0  0  0  0  0  3  0  0  0  0  0  0
  -21.5870   10.4820  -15.3760 C   0  0  0  0  0  0  0  0  0  0  0  0
  -20.3140   10.2410  -14.6340 C   0  0  0  0  0  1  0  0  0  0  0  0
  -22.5200    9.3580  -15.4710 C   0  0  0  0  0  3  0  0  0  0  0  0
  -22.4700    8.4410  -16.4470 C   0  0  0  0  0  3  0  0  0  0  0  0
  -23.3910    7.3020  -16.5200 C   0  0  0  0  0  0  0  0  0  0  0  0
  -24.6460    7.5700  -17.3220 C   0  0  0  0  0  0  0  0  0  0  0  0
  -25.3890    6.2530  -17.6410 C   0  0  0  0  0  2  0  0  0  0  0  0
  -25.5630    8.5020  -16.5050 C   0  0  0  0  0  1  0  0  0  0  0  0
  -24.2870    8.2500  -18.6560 C   0  0  0  0  0  1  0  0  0  0  0  0
  -25.4800    5.3560  -16.4050 C   0  0  0  0  0  2  0  0  0  0  0  0
  -24.0700    4.9660  -15.9480 C   0  0  0  0  0  2  0  0  0  0  0  0
  -23.1460    6.1450  -15.8860 C   0  0  0  0  0  0  0  0  0  0  0  0
  -21.9260    5.9050  -15.0580 C   0  0  0  0  0  1  0  0  0  0  0  0
  1  3  1  0  0  0  0
  2  1  2  0  0  0  0
  3  4  2  0  0  0  0
  4  6  1  0  0  0  0
  4  5  1  0  0  0  0
  6  7  2  0  0  0  0
  7  8  1  0  0  0  0
  8  9  2  0  0  0  0
  9 10  1  0  0  0  0
 11  9  1  0  0  0  0
 12 11  2  0  0  0  0
 13 12  1  0  0  0  0
 13 14  1  0  0  0  0
 14 15  1  0  0  0  0
 14 17  1  0  0  0  0
 16 14  1  0  0  0  0
 18 15  1  0  0  0  0
 19 20  1  0  0  0  0
 19 18  1  0  0  0  0
 20 13  2  0  0  0  0
 21 20  1  0  0  0  0
 22  2  1  0  0  0  0
 23 22  2  0  0  0  0
 24 23  1  0  0  0  0
 25 23  1  0  0  0  0
 25 26  2  0  0  0  0
 27 26  1  0  0  0  0
 27 28  2  0  0  0  0
 28 29  1  0  0  0  0
 30 28  1  0  0  0  0
 31 30  2  0  0  0  0
 32 31  1  0  0  0  0
 32 39  2  0  0  0  0
 33 32  1  0  0  0  0
 33 35  1  0  0  0  0
 34 33  1  0  0  0  0
 34 37  1  0  0  0  0
 36 33  1  0  0  0  0
 37 38  1  0  0  0  0
 38 39  1  0  0  0  0
 39 40  1  0  0  0  0
M  END
>  <MODEL>
16

>  <REMARK>
 VINA RESULT:    -7.424     16.557     18.510
 INTER + INTRA:         -13.073
 INTER:                 -11.675
 INTRA:                  -1.398
 UNBOUND:                -1.310
  10 active torsions:
  status: ('A' for Active; 'I' for Inactive)
    1  A    between atoms: C7_7  and  C17_17 
    2  A    between atoms: C8_8  and  C18_18 
    3  A    between atoms: C21_21  and  C23_23 
    4  A    between atoms: C22_22  and  C24_24 
    5  A    between atoms: C27_27  and  C29_29 
    6  A    between atoms: C28_28  and  C30_30 
    7  A    between atoms: C31_31  and  C33_33 
    8  A    between atoms: C32_32  and  C34_34 
    9  A    between atoms: C37_37  and  C39_39 
   10  A    between atoms: C38_38  and  C40_40 

>  <TORSDO>
F 10

$$$$
./CarotenoB.pdbqt
 OpenBabel10282519553D

 40 41  0  0  0  0  0  0  0  0999 V2000
  -21.9090   11.6080  -16.2590 C   0  0  0  0  0  3  0  0  0  0  0  0
  -22.1140   10.5080  -15.5090 C   0  0  0  0  0  3  0  0  0  0  0  0
  -21.0190   12.6720  -15.8390 C   0  0  0  0  0  3  0  0  0  0  0  0
  -20.5880   13.6730  -16.6350 C   0  0  0  0  0  0  0  0  0  0  0  0
  -21.0000   13.8240  -18.0610 C   0  0  0  0  0  1  0  0  0  0  0  0
  -19.6620   14.6700  -16.1000 C   0  0  0  0  0  3  0  0  0  0  0  0
  -18.4700   14.9440  -16.6540 C   0  0  0  0  0  3  0  0  0  0  0  0
  -17.5590   15.9210  -16.0900 C   0  0  0  0  0  3  0  0  0  0  0  0
  -16.2200   15.7720  -16.0410 C   0  0  0  0  0  0  0  0  0  0  0  0
  -15.5010   14.5730  -16.5590 C   0  0  0  0  0  1  0  0  0  0  0  0
  -15.3930   16.8340  -15.4640 C   0  0  0  0  0  3  0  0  0  0  0  0
  -15.7820   17.5790  -14.4220 C   0  0  0  0  0  3  0  0  0  0  0  0
  -14.9330   18.6210  -13.8340 C   0  0  0  0  0  0  0  0  0  0  0  0
  -14.3040   18.2530  -12.5090 C   0  0  0  0  0  0  0  0  0  0  0  0
  -13.1780   19.2450  -12.1360 C   0  0  0  0  0  2  0  0  0  0  0  0
  -15.3970   18.2710  -11.4250 C   0  0  0  0  0  1  0  0  0  0  0  0
  -13.6910   16.8420  -12.5860 C   0  0  0  0  0  1  0  0  0  0  0  0
  -13.6080   20.6910  -12.3920 C   0  0  0  0  0  2  0  0  0  0  0  0
  -13.8860   20.8890  -13.8860 C   0  0  0  0  0  2  0  0  0  0  0  0
  -14.7540   19.8020  -14.4430 C   0  0  0  0  0  0  0  0  0  0  0  0
  -15.4020   20.1430  -15.7450 C   0  0  0  0  0  1  0  0  0  0  0  0
  -22.9980    9.4400  -15.9300 C   0  0  0  0  0  3  0  0  0  0  0  0
  -22.7280    8.1250  -15.7920 C   0  0  0  0  0  0  0  0  0  0  0  0
  -21.4840    7.6020  -15.1570 C   0  0  0  0  0  1  0  0  0  0  0  0
  -23.6810    7.1330  -16.2910 C   0  0  0  0  0  3  0  0  0  0  0  0
  -23.8040    5.9040  -15.7630 C   0  0  0  0  0  3  0  0  0  0  0  0
  -24.7370    4.9230  -16.2850 C   0  0  0  0  0  3  0  0  0  0  0  0
  -24.7700    3.6300  -15.9080 C   0  0  0  0  0  0  0  0  0  0  0  0
  -23.8290    3.0400  -14.9090 C   0  0  0  0  0  1  0  0  0  0  0  0
  -25.7700    2.7310  -16.4840 C   0  0  0  0  0  3  0  0  0  0  0  0
  -27.0870    2.9790  -16.4540 C   0  0  0  0  0  3  0  0  0  0  0  0
  -28.0810    2.0880  -17.0590 C   0  0  0  0  0  0  0  0  0  0  0  0
  -28.5010    0.9350  -16.1730 C   0  0  0  0  0  0  0  0  0  0  0  0
  -29.7750    0.2520  -16.7220 C   0  0  0  0  0  2  0  0  0  0  0  0
  -27.3470   -0.0850  -16.1120 C   0  0  0  0  0  1  0  0  0  0  0  0
  -28.8080    1.4430  -14.7520 C   0  0  0  0  0  1  0  0  0  0  0  0
  -29.6720    0.0240  -18.2310 C   0  0  0  0  0  2  0  0  0  0  0  0
  -29.5540    1.3730  -18.9480 C   0  0  0  0  0  2  0  0  0  0  0  0
  -28.5350    2.2690  -18.3100 C   0  0  0  0  0  0  0  0  0  0  0  0
  -28.0800    3.3830  -19.1940 C   0  0  0  0  0  1  0  0  0  0  0  0
  1  3  1  0  0  0  0
  1  2  2  0  0  0  0
  4  6  1  0  0  0  0
  4  3  2  0  0  0  0
  5  4  1  0  0  0  0
  7  6  2  0  0  0  0
  7  8  1  0  0  0  0
  8  9  2  0  0  0  0
  9 11  1  0  0  0  0
 10  9  1  0  0  0  0
 11 12  2  0  0  0  0
 12 13  1  0  0  0  0
 13 14  1  0  0  0  0
 14 15  1  0  0  0  0
 14 16  1  0  0  0  0
 17 14  1  0  0  0  0
 18 15  1  0  0  0  0
 19 18  1  0  0  0  0
 20 19  1  0  0  0  0
 20 13  2  0  0  0  0
 21 20  1  0  0  0  0
 22 23  2  0  0  0  0
 22  2  1  0  0  0  0
 23 24  1  0  0  0  0
 25 23  1  0  0  0  0
 25 26  2  0  0  0  0
 27 28  2  0  0  0  0
 27 26  1  0  0  0  0
 28 29  1  0  0  0  0
 30 31  2  0  0  0  0
 30 28  1  0  0  0  0
 32 31  1  0  0  0  0
 32 33  1  0  0  0  0
 33 35  1  0  0  0  0
 33 36  1  0  0  0  0
 34 33  1  0  0  0  0
 37 34  1  0  0  0  0
 38 39  1  0  0  0  0
 38 37  1  0  0  0  0
 39 32  2  0  0  0  0
 40 39  1  0  0  0  0
M  END
>  <MODEL>
17

>  <REMARK>
 VINA RESULT:    -7.397     17.077     18.398
 INTER + INTRA:         -13.031
 INTER:                 -11.670
 INTRA:                  -1.361
 UNBOUND:                -1.310
  10 active torsions:
  status: ('A' for Active; 'I' for Inactive)
    1  A    between atoms: C7_7  and  C17_17 
    2  A    between atoms: C8_8  and  C18_18 
    3  A    between atoms: C21_21  and  C23_23 
    4  A    between atoms: C22_22  and  C24_24 
    5  A    between atoms: C27_27  and  C29_29 
    6  A    between atoms: C28_28  and  C30_30 
    7  A    between atoms: C31_31  and  C33_33 
    8  A    between atoms: C32_32  and  C34_34 
    9  A    between atoms: C37_37  and  C39_39 
   10  A    between atoms: C38_38  and  C40_40 

>  <TORSDO>
F 10

$$$$
./CarotenoB.pdbqt
 OpenBabel10282519553D

 40 41  0  0  0  0  0  0  0  0999 V2000
  -31.4360   12.7540  -17.2640 C   0  0  0  0  0  3  0  0  0  0  0  0
  -32.5040   12.7110  -18.0840 C   0  0  0  0  0  3  0  0  0  0  0  0
  -30.4450   11.6980  -17.2330 C   0  0  0  0  0  3  0  0  0  0  0  0
  -29.1510   11.8460  -17.5880 C   0  0  0  0  0  0  0  0  0  0  0  0
  -28.5680   13.1430  -18.0420 C   0  0  0  0  0  1  0  0  0  0  0  0
  -28.2560   10.6910  -17.5450 C   0  0  0  0  0  3  0  0  0  0  0  0
  -27.2490   10.5680  -16.6650 C   0  0  0  0  0  3  0  0  0  0  0  0
  -26.3600    9.4220  -16.6590 C   0  0  0  0  0  3  0  0  0  0  0  0
  -25.1360    9.4090  -17.2220 C   0  0  0  0  0  0  0  0  0  0  0  0
  -24.5380   10.5750  -17.9340 C   0  0  0  0  0  1  0  0  0  0  0  0
  -24.3130    8.1990  -17.1400 C   0  0  0  0  0  3  0  0  0  0  0  0
  -23.6530    7.8390  -16.0330 C   0  0  0  0  0  3  0  0  0  0  0  0
  -22.8550    6.6100  -15.9540 C   0  0  0  0  0  0  0  0  0  0  0  0
  -21.3850    6.7880  -16.2580 C   0  0  0  0  0  0  0  0  0  0  0  0
  -20.5750    5.5440  -15.8260 C   0  0  0  0  0  2  0  0  0  0  0  0
  -21.2200    7.0190  -17.7710 C   0  0  0  0  0  1  0  0  0  0  0  0
  -20.8300    8.0070  -15.4970 C   0  0  0  0  0  1  0  0  0  0  0  0
  -21.2810    4.2520  -16.2440 C   0  0  0  0  0  2  0  0  0  0  0  0
  -22.6380    4.1560  -15.5390 C   0  0  0  0  0  2  0  0  0  0  0  0
  -23.4150    5.4320  -15.6440 C   0  0  0  0  0  0  0  0  0  0  0  0
  -24.8760    5.2840  -15.3640 C   0  0  0  0  0  1  0  0  0  0  0  0
  -33.4930   13.7690  -18.1220 C   0  0  0  0  0  3  0  0  0  0  0  0
  -33.4260   14.8500  -18.9260 C   0  0  0  0  0  0  0  0  0  0  0  0
  -32.3260   15.0790  -19.9090 C   0  0  0  0  0  1  0  0  0  0  0  0
  -34.4650   15.8770  -18.8490 C   0  0  0  0  0  3  0  0  0  0  0  0
  -34.3260   17.0100  -18.1400 C   0  0  0  0  0  3  0  0  0  0  0  0
  -35.3770   18.0070  -18.0540 C   0  0  0  0  0  3  0  0  0  0  0  0
  -35.2380   19.2060  -17.4530 C   0  0  0  0  0  0  0  0  0  0  0  0
  -33.9810   19.6490  -16.7820 C   0  0  0  0  0  1  0  0  0  0  0  0
  -36.3590   20.1460  -17.4450 C   0  0  0  0  0  3  0  0  0  0  0  0
  -36.6730   20.9080  -16.3890 C   0  0  0  0  0  3  0  0  0  0  0  0
  -37.7800   21.8690  -16.3980 C   0  0  0  0  0  0  0  0  0  0  0  0
  -39.0220   21.3910  -15.6770 C   0  0  0  0  0  0  0  0  0  0  0  0
  -40.0030   22.5590  -15.4310 C   0  0  0  0  0  2  0  0  0  0  0  0
  -39.7050   20.3080  -16.5370 C   0  0  0  0  0  1  0  0  0  0  0  0
  -38.6430   20.7910  -14.3110 C   0  0  0  0  0  1  0  0  0  0  0  0
  -40.1630   23.4190  -16.6860 C   0  0  0  0  0  2  0  0  0  0  0  0
  -38.8150   24.0470  -17.0550 C   0  0  0  0  0  2  0  0  0  0  0  0
  -37.6980   23.0480  -17.0350 C   0  0  0  0  0  0  0  0  0  0  0  0
  -36.4840   23.4920  -17.7830 C   0  0  0  0  0  1  0  0  0  0  0  0
  1  3  1  0  0  0  0
  2  1  2  0  0  0  0
  4  6  1  0  0  0  0
  4  3  2  0  0  0  0
  5  4  1  0  0  0  0
  6  7  2  0  0  0  0
  7  8  1  0  0  0  0
  9 11  1  0  0  0  0
  9  8  2  0  0  0  0
 10  9  1  0  0  0  0
 11 12  2  0  0  0  0
 12 13  1  0  0  0  0
 13 20  2  0  0  0  0
 14 13  1  0  0  0  0
 14 15  1  0  0  0  0
 14 17  1  0  0  0  0
 16 14  1  0  0  0  0
 18 15  1  0  0  0  0
 18 19  1  0  0  0  0
 20 19  1  0  0  0  0
 20 21  1  0  0  0  0
 22  2  1  0  0  0  0
 23 25  1  0  0  0  0
 23 22  2  0  0  0  0
 24 23  1  0  0  0  0
 25 26  2  0  0  0  0
 26 27  1  0  0  0  0
 27 28  2  0  0  0  0
 28 30  1  0  0  0  0
 28 29  1  0  0  0  0
 30 31  2  0  0  0  0
 32 31  1  0  0  0  0
 32 33  1  0  0  0  0
 33 34  1  0  0  0  0
 33 36  1  0  0  0  0
 35 33  1  0  0  0  0
 37 34  1  0  0  0  0
 38 39  1  0  0  0  0
 38 37  1  0  0  0  0
 39 32  2  0  0  0  0
 40 39  1  0  0  0  0
M  END
>  <MODEL>
18

>  <REMARK>
 VINA RESULT:    -7.385     10.264     13.019
 INTER + INTRA:         -13.012
 INTER:                 -11.368
 INTRA:                  -1.644
 UNBOUND:                -1.310
  10 active torsions:
  status: ('A' for Active; 'I' for Inactive)
    1  A    between atoms: C7_7  and  C17_17 
    2  A    between atoms: C8_8  and  C18_18 
    3  A    between atoms: C21_21  and  C23_23 
    4  A    between atoms: C22_22  and  C24_24 
    5  A    between atoms: C27_27  and  C29_29 
    6  A    between atoms: C28_28  and  C30_30 
    7  A    between atoms: C31_31  and  C33_33 
    8  A    between atoms: C32_32  and  C34_34 
    9  A    between atoms: C37_37  and  C39_39 
   10  A    between atoms: C38_38  and  C40_40 

>  <TORSDO>
F 10

$$$$
./CarotenoB.pdbqt
 OpenBabel10282519553D

 40 41  0  0  0  0  0  0  0  0999 V2000
  -42.0350   27.7860  -16.4050 C   0  0  0  0  0  3  0  0  0  0  0  0
  -40.8350   28.2210  -16.8370 C   0  0  0  0  0  3  0  0  0  0  0  0
  -43.2560   28.5290  -16.6430 C   0  0  0  0  0  3  0  0  0  0  0  0
  -44.0120   29.0960  -15.6790 C   0  0  0  0  0  0  0  0  0  0  0  0
  -43.6650   29.0460  -14.2280 C   0  0  0  0  0  1  0  0  0  0  0  0
  -45.2430   29.7920  -16.0460 C   0  0  0  0  0  3  0  0  0  0  0  0
  -45.6420   30.9410  -15.4750 C   0  0  0  0  0  3  0  0  0  0  0  0
  -46.8810   31.5990  -15.8420 C   0  0  0  0  0  3  0  0  0  0  0  0
  -48.0580   31.4050  -15.2140 C   0  0  0  0  0  0  0  0  0  0  0  0
  -48.2390   30.4770  -14.0610 C   0  0  0  0  0  1  0  0  0  0  0  0
  -49.2460   32.1390  -15.6580 C   0  0  0  0  0  3  0  0  0  0  0  0
  -49.6800   33.2550  -15.0600 C   0  0  0  0  0  3  0  0  0  0  0  0
  -50.8540   33.9980  -15.5310 C   0  0  0  0  0  0  0  0  0  0  0  0
  -52.1650   33.5740  -14.9060 C   0  0  0  0  0  0  0  0  0  0  0  0
  -53.2750   34.6110  -15.1910 C   0  0  0  0  0  2  0  0  0  0  0  0
  -52.5660   32.2060  -15.4860 C   0  0  0  0  0  1  0  0  0  0  0  0
  -52.0080   33.4510  -13.3780 C   0  0  0  0  0  1  0  0  0  0  0  0
  -53.2480   35.0630  -16.6530 C   0  0  0  0  0  2  0  0  0  0  0  0
  -51.9150   35.7580  -16.9520 C   0  0  0  0  0  2  0  0  0  0  0  0
  -50.7460   34.9660  -16.4520 C   0  0  0  0  0  0  0  0  0  0  0  0
  -49.4380   35.3520  -17.0650 C   0  0  0  0  0  1  0  0  0  0  0  0
  -39.6140   27.4770  -16.6070 C   0  0  0  0  0  3  0  0  0  0  0  0
  -39.4110   26.2020  -16.9990 C   0  0  0  0  0  0  0  0  0  0  0  0
  -40.4200   25.4000  -17.7520 C   0  0  0  0  0  1  0  0  0  0  0  0
  -38.1490   25.5360  -16.6760 C   0  0  0  0  0  3  0  0  0  0  0  0
  -38.0710   24.4590  -15.8770 C   0  0  0  0  0  3  0  0  0  0  0  0
  -36.8080   23.8260  -15.5460 C   0  0  0  0  0  3  0  0  0  0  0  0
  -36.6950   22.6340  -14.9260 C   0  0  0  0  0  0  0  0  0  0  0  0
  -37.8680   21.8230  -14.4830 C   0  0  0  0  0  1  0  0  0  0  0  0
  -35.3680   22.0780  -14.6610 C   0  0  0  0  0  3  0  0  0  0  0  0
  -34.2310   22.7560  -14.8680 C   0  0  0  0  0  3  0  0  0  0  0  0
  -32.9060   22.2010  -14.5730 C   0  0  0  0  0  0  0  0  0  0  0  0
  -32.3280   21.3520  -15.6840 C   0  0  0  0  0  0  0  0  0  0  0  0
  -30.8220   21.0930  -15.4550 C   0  0  0  0  0  2  0  0  0  0  0  0
  -33.0880   20.0120  -15.7270 C   0  0  0  0  0  1  0  0  0  0  0  0
  -32.4880   22.0710  -17.0370 C   0  0  0  0  0  1  0  0  0  0  0  0
  -30.5440   20.6980  -14.0050 C   0  0  0  0  0  2  0  0  0  0  0  0
  -30.9380   21.8490  -13.0730 C   0  0  0  0  0  2  0  0  0  0  0  0
  -32.2940   22.4030  -13.3960 C   0  0  0  0  0  0  0  0  0  0  0  0
  -32.8920   23.2040  -12.2870 C   0  0  0  0  0  1  0  0  0  0  0  0
  2 22  1  0  0  0  0
  2  1  2  0  0  0  0
  3  1  1  0  0  0  0
  3  4  2  0  0  0  0
  4  5  1  0  0  0  0
  6  4  1  0  0  0  0
  6  7  2  0  0  0  0
  8  7  1  0  0  0  0
  8  9  2  0  0  0  0
  9 10  1  0  0  0  0
 11  9  1  0  0  0  0
 11 12  2  0  0  0  0
 13 12  1  0  0  0  0
 13 14  1  0  0  0  0
 14 17  1  0  0  0  0
 15 14  1  0  0  0  0
 16 14  1  0  0  0  0
 18 15  1  0  0  0  0
 19 18  1  0  0  0  0
 19 20  1  0  0  0  0
 20 13  2  0  0  0  0
 21 20  1  0  0  0  0
 23 25  1  0  0  0  0
 23 22  2  0  0  0  0
 24 23  1  0  0  0  0
 25 26  2  0  0  0  0
 26 27  1  0  0  0  0
 27 28  2  0  0  0  0
 28 30  1  0  0  0  0
 28 29  1  0  0  0  0
 31 30  2  0  0  0  0
 31 32  1  0  0  0  0
 32 39  2  0  0  0  0
 33 34  1  0  0  0  0
 33 32  1  0  0  0  0
 34 37  1  0  0  0  0
 35 33  1  0  0  0  0
 36 33  1  0  0  0  0
 37 38  1  0  0  0  0
 39 38  1  0  0  0  0
 39 40  1  0  0  0  0
M  END
>  <MODEL>
19

>  <REMARK>
 VINA RESULT:    -7.344      9.109     19.474
 INTER + INTRA:         -12.947
 INTER:                 -11.622
 INTRA:                  -1.325
 UNBOUND:                -1.310
  10 active torsions:
  status: ('A' for Active; 'I' for Inactive)
    1  A    between atoms: C7_7  and  C17_17 
    2  A    between atoms: C8_8  and  C18_18 
    3  A    between atoms: C21_21  and  C23_23 
    4  A    between atoms: C22_22  and  C24_24 
    5  A    between atoms: C27_27  and  C29_29 
    6  A    between atoms: C28_28  and  C30_30 
    7  A    between atoms: C31_31  and  C33_33 
    8  A    between atoms: C32_32  and  C34_34 
    9  A    between atoms: C37_37  and  C39_39 
   10  A    between atoms: C38_38  and  C40_40 

>  <TORSDO>
F 10

$$$$
./CarotenoB.pdbqt
 OpenBabel10282519553D

 40 41  0  0  0  0  0  0  0  0999 V2000
  -45.3230   21.6070    5.6240 C   0  0  0  0  0  3  0  0  0  0  0  0
  -44.3400   21.6390    4.7040 C   0  0  0  0  0  3  0  0  0  0  0  0
  -45.8760   20.3610    6.1190 C   0  0  0  0  0  3  0  0  0  0  0  0
  -47.0760   20.2390    6.7220 C   0  0  0  0  0  0  0  0  0  0  0  0
  -48.0080   21.3840    6.9370 C   0  0  0  0  0  1  0  0  0  0  0  0
  -47.5070   18.9290    7.2080 C   0  0  0  0  0  3  0  0  0  0  0  0
  -46.9020   18.2780    8.2150 C   0  0  0  0  0  3  0  0  0  0  0  0
  -47.3360   16.9680    8.6620 C   0  0  0  0  0  3  0  0  0  0  0  0
  -46.9900   16.4160    9.8420 C   0  0  0  0  0  0  0  0  0  0  0  0
  -46.1050   17.0820   10.8410 C   0  0  0  0  0  1  0  0  0  0  0  0
  -47.5010   15.0910   10.2000 C   0  0  0  0  0  3  0  0  0  0  0  0
  -48.4560   14.9010   11.1190 C   0  0  0  0  0  3  0  0  0  0  0  0
  -48.9810   13.5710   11.4490 C   0  0  0  0  0  0  0  0  0  0  0  0
  -48.4710   12.9930   12.7490 C   0  0  0  0  0  0  0  0  0  0  0  0
  -49.3160   11.7730   13.1820 C   0  0  0  0  0  2  0  0  0  0  0  0
  -47.0040   12.5700   12.5560 C   0  0  0  0  0  1  0  0  0  0  0  0
  -48.5510   14.0500   13.8670 C   0  0  0  0  0  1  0  0  0  0  0  0
  -49.5910   10.8420   12.0000 C   0  0  0  0  0  2  0  0  0  0  0  0
  -50.4110   11.5860   10.9390 C   0  0  0  0  0  2  0  0  0  0  0  0
  -49.8390   12.9370   10.6360 C   0  0  0  0  0  0  0  0  0  0  0  0
  -50.3140   13.5280    9.3480 C   0  0  0  0  0  1  0  0  0  0  0  0
  -43.7810   22.8830    4.2130 C   0  0  0  0  0  3  0  0  0  0  0  0
  -43.6680   23.2080    2.9090 C   0  0  0  0  0  0  0  0  0  0  0  0
  -44.1340   22.3290    1.7970 C   0  0  0  0  0  1  0  0  0  0  0  0
  -43.0500   24.4780    2.5290 C   0  0  0  0  0  3  0  0  0  0  0  0
  -42.5940   25.3690    3.4260 C   0  0  0  0  0  3  0  0  0  0  0  0
  -42.0070   26.6360    3.0340 C   0  0  0  0  0  3  0  0  0  0  0  0
  -41.6370   27.6020    3.8980 C   0  0  0  0  0  0  0  0  0  0  0  0
  -41.8080   27.4920    5.3770 C   0  0  0  0  0  1  0  0  0  0  0  0
  -41.0320   28.8350    3.3920 C   0  0  0  0  0  3  0  0  0  0  0  0
  -41.3260   30.0500    3.8730 C   0  0  0  0  0  3  0  0  0  0  0  0
  -40.6930   31.2780    3.3810 C   0  0  0  0  0  0  0  0  0  0  0  0
  -41.5440   32.0680    2.4100 C   0  0  0  0  0  0  0  0  0  0  0  0
  -40.9740   33.4900    2.2060 C   0  0  0  0  0  2  0  0  0  0  0  0
  -41.5780   31.3200    1.0630 C   0  0  0  0  0  1  0  0  0  0  0  0
  -42.9790   32.2030    2.9530 C   0  0  0  0  0  1  0  0  0  0  0  0
  -39.4600   33.4520    1.9980 C   0  0  0  0  0  2  0  0  0  0  0  0
  -38.7820   32.8840    3.2490 C   0  0  0  0  0  2  0  0  0  0  0  0
  -39.4480   31.6320    3.7360 C   0  0  0  0  0  0  0  0  0  0  0  0
  -38.5970   30.8220    4.6590 C   0  0  0  0  0  1  0  0  0  0  0  0
  1  3  1  0  0  0  0
  2  1  2  0  0  0  0
  3  4  2  0  0  0  0
  4  5  1  0  0  0  0
  4  6  1  0  0  0  0
  6  7  2  0  0  0  0
  7  8  1  0  0  0  0
  8  9  2  0  0  0  0
  9 11  1  0  0  0  0
  9 10  1  0  0  0  0
 11 12  2  0  0  0  0
 12 13  1  0  0  0  0
 13 14  1  0  0  0  0
 14 15  1  0  0  0  0
 14 17  1  0  0  0  0
 16 14  1  0  0  0  0
 18 15  1  0  0  0  0
 19 18  1  0  0  0  0
 20 19  1  0  0  0  0
 20 13  2  0  0  0  0
 21 20  1  0  0  0  0
 22  2  1  0  0  0  0
 23 22  2  0  0  0  0
 24 23  1  0  0  0  0
 25 23  1  0  0  0  0
 25 26  2  0  0  0  0
 27 26  1  0  0  0  0
 27 28  2  0  0  0  0
 28 29  1  0  0  0  0
 30 31  2  0  0  0  0
 30 28  1  0  0  0  0
 32 39  2  0  0  0  0
 32 31  1  0  0  0  0
 33 36  1  0  0  0  0
 33 32  1  0  0  0  0
 34 33  1  0  0  0  0
 35 33  1  0  0  0  0
 37 34  1  0  0  0  0
 37 38  1  0  0  0  0
 38 39  1  0  0  0  0
 39 40  1  0  0  0  0
M  END
>  <MODEL>
20

>  <REMARK>
 VINA RESULT:    -7.292     23.524     27.409
 INTER + INTRA:         -12.864
 INTER:                 -11.328
 INTRA:                  -1.536
 UNBOUND:                -1.310
  10 active torsions:
  status: ('A' for Active; 'I' for Inactive)
    1  A    between atoms: C7_7  and  C17_17 
    2  A    between atoms: C8_8  and  C18_18 
    3  A    between atoms: C21_21  and  C23_23 
    4  A    between atoms: C22_22  and  C24_24 
    5  A    between atoms: C27_27  and  C29_29 
    6  A    between atoms: C28_28  and  C30_30 
    7  A    between atoms: C31_31  and  C33_33 
    8  A    between atoms: C32_32  and  C34_34 
    9  A    between atoms: C37_37  and  C39_39 
   10  A    between atoms: C38_38  and  C40_40 

>  <TORSDO>
F 10

$$$$
