./ChaconinaA.pdbqt
 OpenBabel10282519553D

 68 76  0  0  1  0  0  0  0  0999 V2000
  -34.6580   46.1670   -7.6350 O   0  0  0  0  0  0  0  0  0  0  0  0
  -35.3640   46.3830   -6.4310 C   0  0  2  0  0  3  0  0  0  0  0  0
  -35.1560   47.7560   -5.7370 C   0  0  1  0  0  3  0  0  0  0  0  0
  -34.5080   48.8620   -6.5870 C   0  0  2  0  0  3  0  0  0  0  0  0
  -34.5100   47.2800   -8.4950 C   0  0  1  0  0  3  0  0  0  0  0  0
  -33.6570   48.3020   -7.7250 C   0  0  1  0  0  3  0  0  0  0  0  0
  -34.8550   45.4660   -5.4960 O   0  0  0  0  0  0  0  0  0  0  0  0
  -34.3270   46.0020   -4.2880 C   0  0  2  0  0  3  0  0  0  0  0  0
  -32.8080   46.1930   -4.3760 C   0  0  0  0  0  2  0  0  0  0  0  0
  -32.2490   46.5380   -3.0290 C   0  0  0  0  0  0  0  0  0  0  0  0
  -32.6150   45.6180   -1.8870 C   0  0  1  0  0  0  0  0  0  0  0  0
  -31.4330   47.5910   -2.9040 C   0  0  0  0  0  3  0  0  0  0  0  0
  -32.2620   46.2870   -0.5220 C   0  0  2  0  0  3  0  0  0  0  0  0
  -34.1440   45.3550   -1.8900 C   0  0  0  0  0  2  0  0  0  0  0  0
  -31.8500   44.2990   -2.0900 C   0  0  0  0  0  1  0  0  0  0  0  0
  -30.8370   46.8890   -0.5710 C   0  0  2  0  0  3  0  0  0  0  0  0
  -32.4440   45.3040    0.6530 C   0  0  0  0  0  2  0  0  0  0  0  0
  -30.5040   47.4610    0.8050 C   0  0  1  0  0  3  0  0  0  0  0  0
  -30.7980   48.0100   -1.6250 C   0  0  0  0  0  2  0  0  0  0  0  0
  -30.5490   46.3640    1.9110 C   0  0  1  0  0  0  0  0  0  0  0  0
  -29.1260   48.1080    0.9970 C   0  0  0  0  0  2  0  0  0  0  0  0
  -30.0610   47.1780    3.1390 C   0  0  2  0  0  3  0  0  0  0  0  0
  -32.0020   45.8860    2.0070 C   0  0  0  0  0  2  0  0  0  0  0  0
  -29.6160   45.1870    1.6120 C   0  0  0  0  0  1  0  0  0  0  0  0
  -28.9690   48.1460    2.5390 C   0  0  1  0  0  3  0  0  0  0  0  0
  -29.3620   46.3960    4.2720 C   0  0  1  0  0  3  0  0  0  0  0  0
  -27.6990   47.5290    2.9650 N   0  0  2  0  0  0  0  0  0  0  0  0
  -27.9340   47.0030    4.3380 C   0  0  2  0  0  3  0  0  0  0  0  0
  -26.5010   48.3800    2.9200 C   0  0  0  0  0  2  0  0  0  0  0  0
  -26.8060   46.0100    4.6470 C   0  0  0  0  0  2  0  0  0  0  0  0
  -25.4680   46.7670    4.5980 C   0  0  0  0  0  2  0  0  0  0  0  0
  -25.2890   47.4640    3.2330 C   0  0  2  0  0  3  0  0  0  0  0  0
  -24.0010   48.2890    3.2160 C   0  0  0  0  0  1  0  0  0  0  0  0
  -30.0890   46.5480    5.6070 C   0  0  0  0  0  1  0  0  0  0  0  0
  -34.6760   44.9220   -3.2550 C   0  0  0  0  0  2  0  0  0  0  0  0
  -36.4900   48.1860   -5.4910 O   0  0  0  0  0  0  0  0  0  0  0  0
  -36.6730   48.7940   -4.2410 C   0  0  2  0  0  3  0  0  0  0  0  0
  -36.7630   47.7080   -3.3290 O   0  0  0  0  0  0  0  0  0  0  0  0
  -37.0210   48.0490   -1.9940 C   0  0  2  0  0  3  0  0  0  0  0  0
  -38.2860   48.9270   -1.8350 C   0  0  1  0  0  3  0  0  0  0  0  0
  -35.8110   48.7170   -1.3490 C   0  0  0  0  0  1  0  0  0  0  0  0
  -38.4320   50.0040   -2.9300 C   0  0  2  0  0  3  0  0  0  0  0  0
  -38.0530   49.4790   -4.3270 C   0  0  1  0  0  3  0  0  0  0  0  0
  -39.3600   48.0170   -1.9450 O   0  0  0  0  0  0  0  0  0  0  0  0
  -40.2190   48.4700   -1.8390 H   0  0  0  0  0  0  0  0  0  0  0  0
  -37.4990   51.0430   -2.6800 O   0  0  0  0  0  0  0  0  0  0  0  0
  -37.5940   51.3930   -1.7750 H   0  0  0  0  0  0  0  0  0  0  0  0
  -38.0260   50.5430   -5.2400 O   0  0  0  0  0  0  0  0  0  0  0  0
  -37.0970   50.7800   -5.4590 H   0  0  0  0  0  0  0  0  0  0  0  0
  -33.8040   46.7190   -9.7390 C   0  0  0  0  0  2  0  0  0  0  0  0
  -32.5640   46.1520   -9.3880 O   0  0  0  0  0  0  0  0  0  0  0  0
  -31.9410   46.1930  -10.1500 H   0  0  0  0  0  0  0  0  0  0  0  0
  -33.7090   49.6080   -5.6860 O   0  0  0  0  0  0  0  0  0  0  0  0
  -34.2630   50.2430   -5.1850 H   0  0  0  0  0  0  0  0  0  0  0  0
  -33.1120   49.3070   -8.5450 O   0  0  0  0  0  0  0  0  0  0  0  0
  -31.7120   49.3930   -8.6490 C   0  0  2  0  0  3  0  0  0  0  0  0
  -31.1950   48.3140   -7.8960 O   0  0  0  0  0  0  0  0  0  0  0  0
  -29.7970   48.2370   -7.7700 C   0  0  2  0  0  3  0  0  0  0  0  0
  -29.2240   49.5370   -7.1670 C   0  0  1  0  0  3  0  0  0  0  0  0
  -29.1390   47.8750   -9.0920 C   0  0  0  0  0  1  0  0  0  0  0  0
  -29.8260   50.8200   -7.7790 C   0  0  2  0  0  3  0  0  0  0  0  0
  -31.3560   50.7280   -7.9600 C   0  0  1  0  0  3  0  0  0  0  0  0
  -29.6060   49.4690   -5.8100 O   0  0  0  0  0  0  0  0  0  0  0  0
  -28.9530   49.9020   -5.2270 H   0  0  0  0  0  0  0  0  0  0  0  0
  -29.3150   50.9610   -9.0950 O   0  0  0  0  0  0  0  0  0  0  0  0
  -28.8590   51.8170   -9.2030 H   0  0  0  0  0  0  0  0  0  0  0  0
  -31.8120   51.8050   -8.7300 O   0  0  0  0  0  0  0  0  0  0  0  0
  -32.6820   51.5880   -9.1380 H   0  0  0  0  0  0  0  0  0  0  0  0
  1  2  1  0  0  0  0
  2  3  1  0  0  0  0
  2  7  1  1  0  0  0
  3 36  1  6  0  0  0
  4  3  1  0  0  0  0
  4 53  1  1  0  0  0
  5 50  1  6  0  0  0
  5  6  1  0  0  0  0
  5  1  1  0  0  0  0
  6 55  1  6  0  0  0
  6  4  1  0  0  0  0
  8  7  1  6  0  0  0
  8 35  1  0  0  0  0
  9  8  1  0  0  0  0
  9 10  1  0  0  0  0
 10 12  2  0  0  0  0
 10 11  1  0  0  0  0
 11 15  1  6  0  0  0
 11 13  1  0  0  0  0
 12 19  1  0  0  0  0
 13 17  1  1  0  0  0
 14 11  1  0  0  0  0
 16 19  1  6  0  0  0
 16 13  1  0  0  0  0
 16 18  1  0  0  0  0
 17 23  1  0  0  0  0
 18 21  1  6  0  0  0
 18 20  1  0  0  0  0
 20 24  1  6  0  0  0
 20 23  1  0  0  0  0
 20 22  1  0  0  0  0
 21 25  1  0  0  0  0
 22 26  1  0  0  0  0
 25 27  1  0  0  0  0
 25 22  1  0  0  0  0
 26 28  1  0  0  0  0
 26 34  1  0  0  0  0
 27 28  1  0  0  0  0
 28 30  1  0  0  0  0
 29 27  1  0  0  0  0
 29 32  1  0  0  0  0
 31 30  1  0  0  0  0
 32 31  1  0  0  0  0
 33 32  1  0  0  0  0
 35 14  1  0  0  0  0
 36 37  1  0  0  0  0
 37 38  1  0  0  0  0
 38 39  1  0  0  0  0
 39 40  1  0  0  0  0
 39 41  1  0  0  0  0
 42 46  1  0  0  0  0
 42 40  1  0  0  0  0
 43 37  1  0  0  0  0
 43 42  1  0  0  0  0
 44 45  1  0  0  0  0
 44 40  1  0  0  0  0
 46 47  1  0  0  0  0
 48 43  1  0  0  0  0
 49 48  1  0  0  0  0
 50 51  1  0  0  0  0
 52 51  1  0  0  0  0
 53 54  1  0  0  0  0
 56 55  1  0  0  0  0
 56 62  1  0  0  0  0
 56 57  1  0  0  0  0
 57 58  1  0  0  0  0
 58 59  1  0  0  0  0
 59 63  1  0  0  0  0
 60 58  1  0  0  0  0
 61 59  1  0  0  0  0
 62 61  1  0  0  0  0
 63 64  1  0  0  0  0
 65 61  1  0  0  0  0
 66 65  1  0  0  0  0
 67 62  1  0  0  0  0
 68 67  1  0  0  0  0
M  END
>  <MODEL>
1

>  <REMARK>
 VINA RESULT:    -8.929      0.000      0.000
 INTER + INTRA:         -17.555
 INTER:                 -14.671
 INTRA:                  -2.884
 UNBOUND:                -2.884
  15 active torsions:
  status: ('A' for Active; 'I' for Inactive)
    1  A    between atoms: O1_1  and  C26_41 
    2  A    between atoms: O1_1  and  C28_43 
    3  A    between atoms: O3_3  and  C29_44 
    4  A    between atoms: O3_3  and  C34_49 
    5  A    between atoms: O4_4  and  C30_45 
    6  A    between atoms: O5_5  and  C32_47 
    7  A    between atoms: O5_5  and  C36_51 
    8  A    between atoms: O7_7  and  C33_48 
    9  A    between atoms: O9_9  and  C35_50 
   10  A    between atoms: O10_10  and  C37_52 
   11  A    between atoms: O11_11  and  C39_54 
   12  A    between atoms: O12_12  and  C40_55 
   13  A    between atoms: O13_13  and  C41_56 
   14  A    between atoms: O14_14  and  C43_58 
   15  A    between atoms: C31_46  and  C33_48 

>  <TORSDO>
F 15

$$$$
./ChaconinaA.pdbqt
 OpenBabel10282519553D

 68 76  0  0  1  0  0  0  0  0999 V2000
  -43.6220   27.5080    4.1480 O   0  0  0  0  0  0  0  0  0  0  0  0
  -44.3500   26.9710    3.0620 C   0  0  2  0  0  3  0  0  0  0  0  0
  -44.1180   27.6270    1.6750 C   0  0  1  0  0  3  0  0  0  0  0  0
  -42.8820   28.5320    1.5420 C   0  0  2  0  0  3  0  0  0  0  0  0
  -42.3020   27.9390    3.8780 C   0  0  1  0  0  3  0  0  0  0  0  0
  -42.4310   29.1060    2.8850 C   0  0  1  0  0  3  0  0  0  0  0  0
  -45.7060   27.2270    3.3210 O   0  0  0  0  0  0  0  0  0  0  0  0
  -46.4600   26.1740    3.9140 C   0  0  2  0  0  3  0  0  0  0  0  0
  -45.9490   25.8420    5.3210 C   0  0  0  0  0  2  0  0  0  0  0  0
  -46.6020   24.5920    5.8280 C   0  0  0  0  0  0  0  0  0  0  0  0
  -46.5380   23.3800    4.9270 C   0  0  1  0  0  0  0  0  0  0  0  0
  -47.1580   24.5860    7.0450 C   0  0  0  0  0  3  0  0  0  0  0  0
  -47.5390   22.2890    5.4190 C   0  0  2  0  0  3  0  0  0  0  0  0
  -46.9530   23.7720    3.4850 C   0  0  0  0  0  2  0  0  0  0  0  0
  -45.0870   22.8690    4.9390 C   0  0  0  0  0  1  0  0  0  0  0  0
  -47.4100   22.0920    6.9500 C   0  0  2  0  0  3  0  0  0  0  0  0
  -47.3640   20.9680    4.6410 C   0  0  0  0  0  2  0  0  0  0  0  0
  -48.3470   20.9650    7.3740 C   0  0  1  0  0  3  0  0  0  0  0  0
  -47.8070   23.3970    7.6620 C   0  0  0  0  0  2  0  0  0  0  0  0
  -47.9950   19.6240    6.6630 C   0  0  1  0  0  0  0  0  0  0  0  0
  -48.3830   20.5840    8.8610 C   0  0  0  0  0  2  0  0  0  0  0  0
  -48.9940   18.6620    7.3590 C   0  0  2  0  0  3  0  0  0  0  0  0
  -48.2550   19.8300    5.1660 C   0  0  0  0  0  2  0  0  0  0  0  0
  -46.5450   19.1940    6.9010 C   0  0  0  0  0  1  0  0  0  0  0  0
  -49.0440   19.1820    8.8470 C   0  0  1  0  0  3  0  0  0  0  0  0
  -48.5990   17.1710    7.4400 C   0  0  1  0  0  3  0  0  0  0  0  0
  -48.2260   18.1960    9.5780 N   0  0  2  0  0  0  0  0  0  0  0  0
  -48.5250   16.8730    8.9630 C   0  0  2  0  0  3  0  0  0  0  0  0
  -48.3900   18.1520   11.0390 C   0  0  0  0  0  2  0  0  0  0  0  0
  -47.4150   15.9070    9.3960 C   0  0  0  0  0  2  0  0  0  0  0  0
  -47.4440   15.7900   10.9290 C   0  0  0  0  0  2  0  0  0  0  0  0
  -47.3080   17.1810   11.5810 C   0  0  2  0  0  3  0  0  0  0  0  0
  -47.4270   17.0750   13.1020 C   0  0  0  0  0  1  0  0  0  0  0  0
  -49.6190   16.2680    6.7500 C   0  0  0  0  0  1  0  0  0  0  0  0
  -46.2130   25.0000    2.9590 C   0  0  0  0  0  2  0  0  0  0  0  0
  -43.8690   26.5040    0.8370 O   0  0  0  0  0  0  0  0  0  0  0  0
  -43.7020   26.8280   -0.5170 C   0  0  2  0  0  3  0  0  0  0  0  0
  -44.8720   27.5600   -0.8530 O   0  0  0  0  0  0  0  0  0  0  0  0
  -44.9880   27.9480   -2.1950 C   0  0  2  0  0  3  0  0  0  0  0  0
  -44.8580   26.7570   -3.1760 C   0  0  1  0  0  3  0  0  0  0  0  0
  -43.9910   29.0480   -2.5410 C   0  0  0  0  0  1  0  0  0  0  0  0
  -43.7650   25.7440   -2.7760 C   0  0  2  0  0  3  0  0  0  0  0  0
  -43.7380   25.4750   -1.2600 C   0  0  1  0  0  3  0  0  0  0  0  0
  -46.1150   26.1170   -3.1190 O   0  0  0  0  0  0  0  0  0  0  0  0
  -46.6780   26.5030   -2.4190 H   0  0  0  0  0  0  0  0  0  0  0  0
  -42.4930   26.3050   -3.0560 O   0  0  0  0  0  0  0  0  0  0  0  0
  -42.4610   26.6750   -3.9570 H   0  0  0  0  0  0  0  0  0  0  0  0
  -42.6160   24.6990   -0.9380 O   0  0  0  0  0  0  0  0  0  0  0  0
  -42.0770   25.1480   -0.2480 H   0  0  0  0  0  0  0  0  0  0  0  0
  -41.7480   28.3690    5.2450 C   0  0  0  0  0  2  0  0  0  0  0  0
  -42.2900   29.6090    5.6290 O   0  0  0  0  0  0  0  0  0  0  0  0
  -41.6100   30.3180    5.5540 H   0  0  0  0  0  0  0  0  0  0  0  0
  -43.2700   29.5700    0.6600 O   0  0  0  0  0  0  0  0  0  0  0  0
  -42.4870   29.9290    0.1920 H   0  0  0  0  0  0  0  0  0  0  0  0
  -41.2640   29.8850    2.7820 O   0  0  0  0  0  0  0  0  0  0  0  0
  -41.3900   31.2830    2.8470 C   0  0  2  0  0  3  0  0  0  0  0  0
  -41.4680   31.7330    1.5090 O   0  0  0  0  0  0  0  0  0  0  0  0
  -41.5080   33.1230    1.3050 C   0  0  2  0  0  3  0  0  0  0  0  0
  -40.2880   33.8120    1.9530 C   0  0  1  0  0  3  0  0  0  0  0  0
  -42.8250   33.7170    1.7790 C   0  0  0  0  0  1  0  0  0  0  0  0
  -39.9710   33.2970    3.3730 C   0  0  2  0  0  3  0  0  0  0  0  0
  -40.0660   31.7610    3.4810 C   0  0  1  0  0  3  0  0  0  0  0  0
  -39.2180   33.4610    1.1020 O   0  0  0  0  0  0  0  0  0  0  0  0
  -39.5350   33.0640    0.2670 H   0  0  0  0  0  0  0  0  0  0  0  0
  -40.9720   33.7840    4.2520 O   0  0  0  0  0  0  0  0  0  0  0  0
  -40.8900   33.3790    5.1360 H   0  0  0  0  0  0  0  0  0  0  0  0
  -40.0070   31.3720    4.8250 O   0  0  0  0  0  0  0  0  0  0  0  0
  -39.2590   31.8240    5.2790 H   0  0  0  0  0  0  0  0  0  0  0  0
  2  7  1  1  0  0  0
  2  1  1  0  0  0  0
  3 36  1  6  0  0  0
  3  2  1  0  0  0  0
  4 53  1  6  0  0  0
  4  3  1  0  0  0  0
  4  6  1  0  0  0  0
  5  1  1  0  0  0  0
  5 50  1  1  0  0  0
  6 55  1  6  0  0  0
  6  5  1  0  0  0  0
  8  7  1  6  0  0  0
  8  9  1  0  0  0  0
  9 10  1  0  0  0  0
 10 12  2  0  0  0  0
 11 15  1  6  0  0  0
 11 13  1  0  0  0  0
 11 10  1  0  0  0  0
 12 19  1  0  0  0  0
 13 17  1  6  0  0  0
 13 16  1  0  0  0  0
 14 11  1  0  0  0  0
 16 18  1  0  0  0  0
 16 19  1  1  0  0  0
 17 23  1  0  0  0  0
 18 21  1  1  0  0  0
 20 24  1  1  0  0  0
 20 22  1  0  0  0  0
 20 18  1  0  0  0  0
 22 26  1  0  0  0  0
 22 25  1  0  0  0  0
 23 20  1  0  0  0  0
 25 21  1  0  0  0  0
 25 27  1  0  0  0  0
 26 28  1  0  0  0  0
 27 29  1  0  0  0  0
 28 30  1  0  0  0  0
 28 27  1  0  0  0  0
 29 32  1  0  0  0  0
 30 31  1  0  0  0  0
 31 32  1  0  0  0  0
 32 33  1  0  0  0  0
 34 26  1  0  0  0  0
 35 14  1  0  0  0  0
 35  8  1  0  0  0  0
 37 36  1  0  0  0  0
 38 37  1  0  0  0  0
 39 38  1  0  0  0  0
 40 44  1  0  0  0  0
 40 42  1  0  0  0  0
 40 39  1  0  0  0  0
 41 39  1  0  0  0  0
 42 43  1  0  0  0  0
 43 48  1  0  0  0  0
 43 37  1  0  0  0  0
 44 45  1  0  0  0  0
 46 42  1  0  0  0  0
 47 46  1  0  0  0  0
 48 49  1  0  0  0  0
 50 51  1  0  0  0  0
 52 51  1  0  0  0  0
 54 53  1  0  0  0  0
 55 56  1  0  0  0  0
 56 62  1  0  0  0  0
 57 56  1  0  0  0  0
 58 57  1  0  0  0  0
 58 60  1  0  0  0  0
 58 59  1  0  0  0  0
 59 61  1  0  0  0  0
 61 62  1  0  0  0  0
 61 65  1  0  0  0  0
 62 67  1  0  0  0  0
 63 59  1  0  0  0  0
 64 63  1  0  0  0  0
 65 66  1  0  0  0  0
 67 68  1  0  0  0  0
M  END
>  <MODEL>
2

>  <REMARK>
 VINA RESULT:    -8.771     24.751     28.003
 INTER + INTRA:         -17.295
 INTER:                 -15.178
 INTRA:                  -2.118
 UNBOUND:                -2.884
  15 active torsions:
  status: ('A' for Active; 'I' for Inactive)
    1  A    between atoms: O1_1  and  C26_41 
    2  A    between atoms: O1_1  and  C28_43 
    3  A    between atoms: O3_3  and  C29_44 
    4  A    between atoms: O3_3  and  C34_49 
    5  A    between atoms: O4_4  and  C30_45 
    6  A    between atoms: O5_5  and  C32_47 
    7  A    between atoms: O5_5  and  C36_51 
    8  A    between atoms: O7_7  and  C33_48 
    9  A    between atoms: O9_9  and  C35_50 
   10  A    between atoms: O10_10  and  C37_52 
   11  A    between atoms: O11_11  and  C39_54 
   12  A    between atoms: O12_12  and  C40_55 
   13  A    between atoms: O13_13  and  C41_56 
   14  A    between atoms: O14_14  and  C43_58 
   15  A    between atoms: C31_46  and  C33_48 

>  <TORSDO>
F 15

$$$$
./ChaconinaA.pdbqt
 OpenBabel10282519553D

 68 76  0  0  1  0  0  0  0  0999 V2000
  -44.1340   27.7200    3.9490 O   0  0  0  0  0  0  0  0  0  0  0  0
  -44.7050   27.1520    2.7880 C   0  0  2  0  0  3  0  0  0  0  0  0
  -44.2290   27.7240    1.4260 C   0  0  1  0  0  3  0  0  0  0  0  0
  -42.9490   28.5750    1.4500 C   0  0  2  0  0  3  0  0  0  0  0  0
  -42.7710   28.0880    3.8730 C   0  0  1  0  0  3  0  0  0  0  0  0
  -42.6900   29.2040    2.8180 C   0  0  1  0  0  3  0  0  0  0  0  0
  -46.0730   27.4710    2.8150 O   0  0  0  0  0  0  0  0  0  0  0  0
  -46.7590   27.4780    1.5680 C   0  0  2  0  0  3  0  0  0  0  0  0
  -47.4430   28.8260    1.3110 C   0  0  0  0  0  2  0  0  0  0  0  0
  -48.3390   28.7340    0.1130 C   0  0  0  0  0  0  0  0  0  0  0  0
  -49.3430   27.6040    0.1030 C   0  0  1  0  0  0  0  0  0  0  0  0
  -48.2480   29.6570   -0.8510 C   0  0  0  0  0  3  0  0  0  0  0  0
  -49.9450   27.4300   -1.3260 C   0  0  2  0  0  3  0  0  0  0  0  0
  -48.6430   26.2710    0.4760 C   0  0  0  0  0  2  0  0  0  0  0  0
  -50.4280   27.9390    1.1410 C   0  0  0  0  0  1  0  0  0  0  0  0
  -50.3570   28.8050   -1.9060 C   0  0  2  0  0  3  0  0  0  0  0  0
  -51.1090   26.4170   -1.3310 C   0  0  0  0  0  2  0  0  0  0  0  0
  -51.0110   28.5800   -3.2680 C   0  0  1  0  0  3  0  0  0  0  0  0
  -49.1030   29.6810   -2.0680 C   0  0  0  0  0  2  0  0  0  0  0  0
  -52.2780   27.6790   -3.1580 C   0  0  1  0  0  0  0  0  0  0  0  0
  -51.5110   29.8120   -4.0340 C   0  0  0  0  0  2  0  0  0  0  0  0
  -52.7880   27.7260   -4.6220 C   0  0  2  0  0  3  0  0  0  0  0  0
  -51.8040   26.2960   -2.6970 C   0  0  0  0  0  2  0  0  0  0  0  0
  -53.3170   28.2410   -2.1830 C   0  0  0  0  0  1  0  0  0  0  0  0
  -52.4780   29.2020   -5.0820 C   0  0  1  0  0  3  0  0  0  0  0  0
  -54.3020   27.5170   -4.8500 C   0  0  1  0  0  3  0  0  0  0  0  0
  -53.7990   29.8560   -5.0380 N   0  0  2  0  0  0  0  0  0  0  0  0
  -54.7800   28.8400   -5.5090 C   0  0  2  0  0  3  0  0  0  0  0  0
  -53.9410   31.1160   -5.7830 C   0  0  0  0  0  2  0  0  0  0  0  0
  -56.1750   29.3210   -5.0900 C   0  0  0  0  0  2  0  0  0  0  0  0
  -56.4480   30.6700   -5.7770 C   0  0  0  0  0  2  0  0  0  0  0  0
  -55.3410   31.6870   -5.4340 C   0  0  2  0  0  3  0  0  0  0  0  0
  -55.5640   32.9990   -6.1880 C   0  0  0  0  0  1  0  0  0  0  0  0
  -54.5870   26.3160   -5.7490 C   0  0  0  0  0  1  0  0  0  0  0  0
  -47.8030   26.3680    1.7480 C   0  0  0  0  0  2  0  0  0  0  0  0
  -43.9010   26.5500    0.6930 O   0  0  0  0  0  0  0  0  0  0  0  0
  -43.6970   26.7690   -0.6770 C   0  0  2  0  0  3  0  0  0  0  0  0
  -44.8590   27.4690   -1.1000 O   0  0  0  0  0  0  0  0  0  0  0  0
  -44.9380   27.7530   -2.4710 C   0  0  2  0  0  3  0  0  0  0  0  0
  -44.7780   26.4910   -3.3530 C   0  0  1  0  0  3  0  0  0  0  0  0
  -43.9340   28.8280   -2.8720 C   0  0  0  0  0  1  0  0  0  0  0  0
  -43.6950   25.5160   -2.8470 C   0  0  2  0  0  3  0  0  0  0  0  0
  -43.7090   25.3640   -1.3140 C   0  0  1  0  0  3  0  0  0  0  0  0
  -46.0350   25.8520   -3.2820 O   0  0  0  0  0  0  0  0  0  0  0  0
  -46.7520   26.4470   -3.5790 H   0  0  0  0  0  0  0  0  0  0  0  0
  -42.4160   26.0600   -3.1330 O   0  0  0  0  0  0  0  0  0  0  0  0
  -42.4240   26.5540   -3.9740 H   0  0  0  0  0  0  0  0  0  0  0  0
  -42.5950   24.6190   -0.9030 O   0  0  0  0  0  0  0  0  0  0  0  0
  -42.8820   23.7590   -0.5220 H   0  0  0  0  0  0  0  0  0  0  0  0
  -42.4200   28.5710    5.2900 C   0  0  0  0  0  2  0  0  0  0  0  0
  -41.0240   28.5970    5.4690 O   0  0  0  0  0  0  0  0  0  0  0  0
  -40.6390   27.7090    5.2870 H   0  0  0  0  0  0  0  0  0  0  0  0
  -43.1460   29.5780    0.4690 O   0  0  0  0  0  0  0  0  0  0  0  0
  -42.5730   29.4120   -0.3080 H   0  0  0  0  0  0  0  0  0  0  0  0
  -41.4870   29.9330    2.8660 O   0  0  0  0  0  0  0  0  0  0  0  0
  -41.5620   31.3360    2.9230 C   0  0  2  0  0  3  0  0  0  0  0  0
  -41.6320   31.7800    1.5830 O   0  0  0  0  0  0  0  0  0  0  0  0
  -41.6230   33.1700    1.3700 C   0  0  2  0  0  3  0  0  0  0  0  0
  -40.3750   33.8180    2.0070 C   0  0  1  0  0  3  0  0  0  0  0  0
  -42.9150   33.8130    1.8480 C   0  0  0  0  0  1  0  0  0  0  0  0
  -40.0680   33.3000    3.4290 C   0  0  2  0  0  3  0  0  0  0  0  0
  -40.2180   31.7690    3.5470 C   0  0  1  0  0  3  0  0  0  0  0  0
  -39.3240   33.4230    1.1520 O   0  0  0  0  0  0  0  0  0  0  0  0
  -39.5870   32.6800    0.5750 H   0  0  0  0  0  0  0  0  0  0  0  0
  -41.0460   33.8290    4.3100 O   0  0  0  0  0  0  0  0  0  0  0  0
  -41.6020   34.4920    3.8600 H   0  0  0  0  0  0  0  0  0  0  0  0
  -40.1660   31.3860    4.8930 O   0  0  0  0  0  0  0  0  0  0  0  0
  -39.9160   30.4360    4.9670 H   0  0  0  0  0  0  0  0  0  0  0  0
  2  7  1  1  0  0  0
  2  1  1  0  0  0  0
  3 36  1  6  0  0  0
  3  4  1  0  0  0  0
  3  2  1  0  0  0  0
  4 53  1  6  0  0  0
  4  6  1  0  0  0  0
  5  1  1  0  0  0  0
  5 50  1  1  0  0  0
  6 55  1  6  0  0  0
  6  5  1  0  0  0  0
  8 35  1  0  0  0  0
  8  7  1  1  0  0  0
  9  8  1  0  0  0  0
 10  9  1  0  0  0  0
 11 10  1  0  0  0  0
 11 14  1  0  0  0  0
 11 15  1  1  0  0  0
 12 10  2  0  0  0  0
 13 17  1  1  0  0  0
 13 11  1  0  0  0  0
 14 35  1  0  0  0  0
 16 19  1  6  0  0  0
 16 13  1  0  0  0  0
 18 21  1  1  0  0  0
 18 20  1  0  0  0  0
 18 16  1  0  0  0  0
 19 12  1  0  0  0  0
 20 23  1  0  0  0  0
 20 24  1  1  0  0  0
 22 20  1  0  0  0  0
 23 17  1  0  0  0  0
 25 27  1  0  0  0  0
 25 22  1  0  0  0  0
 25 21  1  0  0  0  0
 26 22  1  0  0  0  0
 28 30  1  0  0  0  0
 28 27  1  0  0  0  0
 28 26  1  0  0  0  0
 29 32  1  0  0  0  0
 29 27  1  0  0  0  0
 31 32  1  0  0  0  0
 31 30  1  0  0  0  0
 33 32  1  0  0  0  0
 34 26  1  0  0  0  0
 37 36  1  0  0  0  0
 38 37  1  0  0  0  0
 39 38  1  0  0  0  0
 40 44  1  0  0  0  0
 40 42  1  0  0  0  0
 40 39  1  0  0  0  0
 41 39  1  0  0  0  0
 42 43  1  0  0  0  0
 43 48  1  0  0  0  0
 43 37  1  0  0  0  0
 45 44  1  0  0  0  0
 46 42  1  0  0  0  0
 47 46  1  0  0  0  0
 48 49  1  0  0  0  0
 50 51  1  0  0  0  0
 52 51  1  0  0  0  0
 54 53  1  0  0  0  0
 55 56  1  0  0  0  0
 56 62  1  0  0  0  0
 57 56  1  0  0  0  0
 58 57  1  0  0  0  0
 58 60  1  0  0  0  0
 58 59  1  0  0  0  0
 59 61  1  0  0  0  0
 61 62  1  0  0  0  0
 61 65  1  0  0  0  0
 62 67  1  0  0  0  0
 63 59  1  0  0  0  0
 64 63  1  0  0  0  0
 66 65  1  0  0  0  0
 67 68  1  0  0  0  0
M  END
>  <MODEL>
3

>  <REMARK>
 VINA RESULT:    -8.684     21.712     26.382
 INTER + INTRA:         -17.152
 INTER:                 -14.444
 INTRA:                  -2.708
 UNBOUND:                -2.884
  15 active torsions:
  status: ('A' for Active; 'I' for Inactive)
    1  A    between atoms: O1_1  and  C26_41 
    2  A    between atoms: O1_1  and  C28_43 
    3  A    between atoms: O3_3  and  C29_44 
    4  A    between atoms: O3_3  and  C34_49 
    5  A    between atoms: O4_4  and  C30_45 
    6  A    between atoms: O5_5  and  C32_47 
    7  A    between atoms: O5_5  and  C36_51 
    8  A    between atoms: O7_7  and  C33_48 
    9  A    between atoms: O9_9  and  C35_50 
   10  A    between atoms: O10_10  and  C37_52 
   11  A    between atoms: O11_11  and  C39_54 
   12  A    between atoms: O12_12  and  C40_55 
   13  A    between atoms: O13_13  and  C41_56 
   14  A    between atoms: O14_14  and  C43_58 
   15  A    between atoms: C31_46  and  C33_48 

>  <TORSDO>
F 15

$$$$
./ChaconinaA.pdbqt
 OpenBabel10282519553D

 68 76  0  0  1  0  0  0  0  0999 V2000
  -43.7010   27.0720    3.5060 O   0  0  0  0  0  0  0  0  0  0  0  0
  -44.9340   27.2000    2.8280 C   0  0  2  0  0  3  0  0  0  0  0  0
  -45.1080   28.4510    1.9260 C   0  0  1  0  0  3  0  0  0  0  0  0
  -43.8270   29.2240    1.5720 C   0  0  2  0  0  3  0  0  0  0  0  0
  -42.5460   27.5020    2.8120 C   0  0  1  0  0  3  0  0  0  0  0  0
  -42.7150   29.0160    2.6000 C   0  0  1  0  0  3  0  0  0  0  0  0
  -45.9200   27.3700    3.8140 O   0  0  0  0  0  0  0  0  0  0  0  0
  -46.0110   28.6560    4.4190 C   0  0  2  0  0  3  0  0  0  0  0  0
  -44.9250   28.8530    5.4840 C   0  0  0  0  0  2  0  0  0  0  0  0
  -45.1810   30.1100    6.2590 C   0  0  0  0  0  0  0  0  0  0  0  0
  -46.5610   30.2720    6.8540 C   0  0  1  0  0  0  0  0  0  0  0  0
  -44.1890   30.9930    6.4280 C   0  0  0  0  0  3  0  0  0  0  0  0
  -46.7800   31.7460    7.3150 C   0  0  2  0  0  3  0  0  0  0  0  0
  -47.6380   29.9580    5.7830 C   0  0  0  0  0  2  0  0  0  0  0  0
  -46.6790   29.2840    8.0270 C   0  0  0  0  0  1  0  0  0  0  0  0
  -45.5540   32.2460    8.1190 C   0  0  2  0  0  3  0  0  0  0  0  0
  -48.1000   31.9040    8.0980 C   0  0  0  0  0  2  0  0  0  0  0  0
  -45.8440   33.6600    8.6150 C   0  0  1  0  0  3  0  0  0  0  0  0
  -44.3200   32.2580    7.2010 C   0  0  0  0  0  2  0  0  0  0  0  0
  -47.1010   33.7020    9.5360 C   0  0  1  0  0  0  0  0  0  0  0  0
  -44.7640   34.3610    9.4500 C   0  0  0  0  0  2  0  0  0  0  0  0
  -47.0800   35.1890    9.9790 C   0  0  2  0  0  3  0  0  0  0  0  0
  -48.3040   33.3190    8.6660 C   0  0  0  0  0  2  0  0  0  0  0  0
  -46.9840   32.7570   10.7350 C   0  0  0  0  0  1  0  0  0  0  0  0
  -45.5440   35.5140   10.1340 C   0  0  1  0  0  3  0  0  0  0  0  0
  -47.7280   35.5300   11.3390 C   0  0  1  0  0  3  0  0  0  0  0  0
  -45.3420   35.5060   11.5950 N   0  0  2  0  0  0  0  0  0  0  0  0
  -46.5640   36.1150   12.1860 C   0  0  2  0  0  3  0  0  0  0  0  0
  -44.1250   36.1600   12.1000 C   0  0  0  0  0  2  0  0  0  0  0  0
  -46.5820   35.7530   13.6760 C   0  0  0  0  0  2  0  0  0  0  0  0
  -45.3290   36.3510   14.3350 C   0  0  0  0  0  2  0  0  0  0  0  0
  -44.0530   35.8600   13.6200 C   0  0  2  0  0  3  0  0  0  0  0  0
  -42.8120   36.5240   14.2180 C   0  0  0  0  0  1  0  0  0  0  0  0
  -48.8680   36.5350   11.1960 C   0  0  0  0  0  1  0  0  0  0  0  0
  -47.4020   28.6300    5.0650 C   0  0  0  0  0  2  0  0  0  0  0  0
  -45.5730   27.8910    0.7030 O   0  0  0  0  0  0  0  0  0  0  0  0
  -44.7660   28.1880   -0.4050 C   0  0  2  0  0  3  0  0  0  0  0  0
  -45.4860   29.1920   -1.1070 O   0  0  0  0  0  0  0  0  0  0  0  0
  -44.9170   29.6210   -2.3150 C   0  0  2  0  0  3  0  0  0  0  0  0
  -44.6310   28.4530   -3.2890 C   0  0  1  0  0  3  0  0  0  0  0  0
  -43.6590   30.4470   -2.0720 C   0  0  0  0  0  1  0  0  0  0  0  0
  -44.0680   27.1940   -2.5970 C   0  0  2  0  0  3  0  0  0  0  0  0
  -44.7640   26.8990   -1.2550 C   0  0  1  0  0  3  0  0  0  0  0  0
  -45.8920   28.1420   -3.8440 O   0  0  0  0  0  0  0  0  0  0  0  0
  -46.6110   28.3110   -3.2060 H   0  0  0  0  0  0  0  0  0  0  0  0
  -42.7140   27.4290   -2.2460 O   0  0  0  0  0  0  0  0  0  0  0  0
  -42.2590   27.9550   -2.9290 H   0  0  0  0  0  0  0  0  0  0  0  0
  -44.0900   25.8640   -0.5910 O   0  0  0  0  0  0  0  0  0  0  0  0
  -44.5220   25.0010   -0.7800 H   0  0  0  0  0  0  0  0  0  0  0  0
  -41.3780   27.1500    3.7470 C   0  0  0  0  0  2  0  0  0  0  0  0
  -41.2610   28.1100    4.7700 O   0  0  0  0  0  0  0  0  0  0  0  0
  -42.0870   28.1410    5.3060 H   0  0  0  0  0  0  0  0  0  0  0  0
  -44.2120   30.5860    1.5230 O   0  0  0  0  0  0  0  0  0  0  0  0
  -44.7180   30.8260    2.3270 H   0  0  0  0  0  0  0  0  0  0  0  0
  -41.5190   29.6690    2.2520 O   0  0  0  0  0  0  0  0  0  0  0  0
  -41.2440   30.9130    2.8470 C   0  0  2  0  0  3  0  0  0  0  0  0
  -41.7640   31.8910    1.9690 O   0  0  0  0  0  0  0  0  0  0  0  0
  -41.5300   33.2370    2.3040 C   0  0  2  0  0  3  0  0  0  0  0  0
  -40.0190   33.5130    2.4600 C   0  0  1  0  0  3  0  0  0  0  0  0
  -42.3220   33.6490    3.5350 C   0  0  0  0  0  1  0  0  0  0  0  0
  -39.2730   32.4260    3.2630 C   0  0  2  0  0  3  0  0  0  0  0  0
  -39.7020   30.9980    2.8680 C   0  0  1  0  0  3  0  0  0  0  0  0
  -39.5410   33.4940    1.1330 O   0  0  0  0  0  0  0  0  0  0  0  0
  -38.6610   33.0730    1.0710 H   0  0  0  0  0  0  0  0  0  0  0  0
  -39.6450   32.5520    4.6260 O   0  0  0  0  0  0  0  0  0  0  0  0
  -39.3660   33.4140    4.9880 H   0  0  0  0  0  0  0  0  0  0  0  0
  -39.1810   30.0720    3.7800 O   0  0  0  0  0  0  0  0  0  0  0  0
  -38.3170   30.3890    4.1320 H   0  0  0  0  0  0  0  0  0  0  0  0
  2  1  1  0  0  0  0
  2  7  1  1  0  0  0
  3 36  1  6  0  0  0
  3  2  1  0  0  0  0
  4 53  1  1  0  0  0
  4  3  1  0  0  0  0
  4  6  1  0  0  0  0
  5  1  1  0  0  0  0
  5 50  1  1  0  0  0
  6 55  1  6  0  0  0
  6  5  1  0  0  0  0
  8  7  1  1  0  0  0
  8 35  1  0  0  0  0
  8  9  1  0  0  0  0
  9 10  1  0  0  0  0
 10 12  2  0  0  0  0
 10 11  1  0  0  0  0
 11 13  1  0  0  0  0
 11 15  1  1  0  0  0
 12 19  1  0  0  0  0
 13 17  1  1  0  0  0
 13 16  1  0  0  0  0
 14 11  1  0  0  0  0
 16 19  1  6  0  0  0
 16 18  1  0  0  0  0
 17 23  1  0  0  0  0
 18 21  1  1  0  0  0
 18 20  1  0  0  0  0
 20 22  1  0  0  0  0
 20 24  1  1  0  0  0
 21 25  1  0  0  0  0
 22 25  1  0  0  0  0
 22 26  1  0  0  0  0
 23 20  1  0  0  0  0
 25 27  1  0  0  0  0
 26 28  1  0  0  0  0
 27 29  1  0  0  0  0
 27 28  1  0  0  0  0
 28 30  1  0  0  0  0
 29 32  1  0  0  0  0
 30 31  1  0  0  0  0
 32 33  1  0  0  0  0
 32 31  1  0  0  0  0
 34 26  1  0  0  0  0
 35 14  1  0  0  0  0
 37 36  1  0  0  0  0
 38 37  1  0  0  0  0
 39 41  1  0  0  0  0
 39 38  1  0  0  0  0
 40 42  1  0  0  0  0
 40 39  1  0  0  0  0
 42 46  1  0  0  0  0
 42 43  1  0  0  0  0
 43 48  1  0  0  0  0
 43 37  1  0  0  0  0
 44 40  1  0  0  0  0
 44 45  1  0  0  0  0
 47 46  1  0  0  0  0
 49 48  1  0  0  0  0
 50 51  1  0  0  0  0
 51 52  1  0  0  0  0
 53 54  1  0  0  0  0
 55 56  1  0  0  0  0
 56 62  1  0  0  0  0
 57 58  1  0  0  0  0
 57 56  1  0  0  0  0
 58 59  1  0  0  0  0
 58 60  1  0  0  0  0
 59 61  1  0  0  0  0
 61 65  1  0  0  0  0
 62 61  1  0  0  0  0
 62 67  1  0  0  0  0
 63 59  1  0  0  0  0
 64 63  1  0  0  0  0
 65 66  1  0  0  0  0
 67 68  1  0  0  0  0
M  END
>  <MODEL>
4

>  <REMARK>
 VINA RESULT:    -8.617     19.690     22.958
 INTER + INTRA:         -17.042
 INTER:                 -14.237
 INTRA:                  -2.805
 UNBOUND:                -2.884
  15 active torsions:
  status: ('A' for Active; 'I' for Inactive)
    1  A    between atoms: O1_1  and  C26_41 
    2  A    between atoms: O1_1  and  C28_43 
    3  A    between atoms: O3_3  and  C29_44 
    4  A    between atoms: O3_3  and  C34_49 
    5  A    between atoms: O4_4  and  C30_45 
    6  A    between atoms: O5_5  and  C32_47 
    7  A    between atoms: O5_5  and  C36_51 
    8  A    between atoms: O7_7  and  C33_48 
    9  A    between atoms: O9_9  and  C35_50 
   10  A    between atoms: O10_10  and  C37_52 
   11  A    between atoms: O11_11  and  C39_54 
   12  A    between atoms: O12_12  and  C40_55 
   13  A    between atoms: O13_13  and  C41_56 
   14  A    between atoms: O14_14  and  C43_58 
   15  A    between atoms: C31_46  and  C33_48 

>  <TORSDO>
F 15

$$$$
./ChaconinaA.pdbqt
 OpenBabel10282519553D

 68 76  0  0  1  0  0  0  0  0999 V2000
  -43.8830   28.3600    0.5500 O   0  0  0  0  0  0  0  0  0  0  0  0
  -43.3820   29.6090    0.9820 C   0  0  2  0  0  3  0  0  0  0  0  0
  -42.4590   29.5960    2.2290 C   0  0  1  0  0  3  0  0  0  0  0  0
  -41.8930   28.2290    2.6490 C   0  0  2  0  0  3  0  0  0  0  0  0
  -43.0140   27.2510    0.6660 C   0  0  1  0  0  3  0  0  0  0  0  0
  -42.7610   27.0650    2.1720 C   0  0  1  0  0  3  0  0  0  0  0  0
  -44.4900   30.3620    1.4050 O   0  0  0  0  0  0  0  0  0  0  0  0
  -44.9290   30.1680    2.7460 C   0  0  2  0  0  3  0  0  0  0  0  0
  -46.2290   29.3570    2.7980 C   0  0  0  0  0  2  0  0  0  0  0  0
  -46.7870   29.3610    4.1890 C   0  0  0  0  0  0  0  0  0  0  0  0
  -46.9630   30.7120    4.8450 C   0  0  1  0  0  0  0  0  0  0  0  0
  -47.1420   28.2050    4.7610 C   0  0  0  0  0  3  0  0  0  0  0  0
  -47.2110   30.5390    6.3760 C   0  0  2  0  0  3  0  0  0  0  0  0
  -45.6690   31.5520    4.6790 C   0  0  0  0  0  2  0  0  0  0  0  0
  -48.1430   31.4140    4.1520 C   0  0  0  0  0  1  0  0  0  0  0  0
  -48.2730   29.4400    6.6280 C   0  0  2  0  0  3  0  0  0  0  0  0
  -47.5840   31.8790    7.0430 C   0  0  0  0  0  2  0  0  0  0  0  0
  -48.5410   29.3610    8.1280 C   0  0  1  0  0  3  0  0  0  0  0  0
  -47.7320   28.0910    6.1220 C   0  0  0  0  0  2  0  0  0  0  0  0
  -49.0730   30.7120    8.6920 C   0  0  1  0  0  0  0  0  0  0  0  0
  -49.5740   28.3360    8.6170 C   0  0  0  0  0  2  0  0  0  0  0  0
  -49.3700   30.3120   10.1610 C   0  0  2  0  0  3  0  0  0  0  0  0
  -47.9450   31.7380    8.5320 C   0  0  0  0  0  2  0  0  0  0  0  0
  -50.3380   31.1920    7.9750 C   0  0  0  0  0  1  0  0  0  0  0  0
  -49.9110   28.8350   10.0470 C   0  0  1  0  0  3  0  0  0  0  0  0
  -50.4630   31.1110   10.9040 C   0  0  1  0  0  3  0  0  0  0  0  0
  -51.3660   28.9920   10.2310 N   0  0  2  0  0  0  0  0  0  0  0  0
  -51.5400   30.0510   11.2630 C   0  0  2  0  0  3  0  0  0  0  0  0
  -52.1240   27.7810   10.5800 C   0  0  0  0  0  2  0  0  0  0  0  0
  -52.9950   30.5320   11.1830 C   0  0  0  0  0  2  0  0  0  0  0  0
  -53.9170   29.3420   11.4950 C   0  0  0  0  0  2  0  0  0  0  0  0
  -53.6270   28.1670   10.5380 C   0  0  2  0  0  3  0  0  0  0  0  0
  -54.4800   26.9520   10.9050 C   0  0  0  0  0  1  0  0  0  0  0  0
  -49.9210   31.7950   12.1580 C   0  0  0  0  0  1  0  0  0  0  0  0
  -45.1670   31.6020    3.2370 C   0  0  0  0  0  2  0  0  0  0  0  0
  -41.3410   30.3630    1.7970 O   0  0  0  0  0  0  0  0  0  0  0  0
  -40.7400   31.1200    2.8130 C   0  0  2  0  0  3  0  0  0  0  0  0
  -41.6690   31.0710    3.8870 O   0  0  0  0  0  0  0  0  0  0  0  0
  -41.3320   31.8210    5.0230 C   0  0  2  0  0  3  0  0  0  0  0  0
  -41.0420   33.3050    4.6950 C   0  0  1  0  0  3  0  0  0  0  0  0
  -40.1650   31.1920    5.7760 C   0  0  0  0  0  1  0  0  0  0  0  0
  -40.2370   33.5050    3.3940 C   0  0  2  0  0  3  0  0  0  0  0  0
  -40.6960   32.5620    2.2660 C   0  0  1  0  0  3  0  0  0  0  0  0
  -42.3200   33.8850    4.5330 O   0  0  0  0  0  0  0  0  0  0  0  0
  -42.6070   33.8530    3.6000 H   0  0  0  0  0  0  0  0  0  0  0  0
  -38.8860   33.1390    3.6290 O   0  0  0  0  0  0  0  0  0  0  0  0
  -38.8070   32.5680    4.4150 H   0  0  0  0  0  0  0  0  0  0  0  0
  -39.8140   32.6580    1.1810 O   0  0  0  0  0  0  0  0  0  0  0  0
  -38.9700   33.0770    1.4640 H   0  0  0  0  0  0  0  0  0  0  0  0
  -43.7890   26.0830    0.0360 C   0  0  0  0  0  2  0  0  0  0  0  0
  -42.9020   25.0790   -0.3940 O   0  0  0  0  0  0  0  0  0  0  0  0
  -42.1030   25.4820   -0.8070 H   0  0  0  0  0  0  0  0  0  0  0  0
  -41.8380   28.2630    4.0630 O   0  0  0  0  0  0  0  0  0  0  0  0
  -42.4570   28.9380    4.4120 H   0  0  0  0  0  0  0  0  0  0  0  0
  -42.2180   25.8090    2.4970 O   0  0  0  0  0  0  0  0  0  0  0  0
  -42.6310   25.1950    3.6920 C   0  0  2  0  0  3  0  0  0  0  0  0
  -43.6560   26.0140    4.2190 O   0  0  0  0  0  0  0  0  0  0  0  0
  -44.1760   25.6550    5.4760 C   0  0  2  0  0  3  0  0  0  0  0  0
  -43.0550   25.5770    6.5360 C   0  0  1  0  0  3  0  0  0  0  0  0
  -44.9840   24.3690    5.3960 C   0  0  0  0  0  1  0  0  0  0  0  0
  -41.7870   24.8490    6.0410 C   0  0  2  0  0  3  0  0  0  0  0  0
  -41.3890   25.2590    4.6080 C   0  0  1  0  0  3  0  0  0  0  0  0
  -42.7300   26.9300    6.7720 O   0  0  0  0  0  0  0  0  0  0  0  0
  -42.2670   27.3290    6.0100 H   0  0  0  0  0  0  0  0  0  0  0  0
  -42.0810   23.4640    5.9520 O   0  0  0  0  0  0  0  0  0  0  0  0
  -42.9660   23.3180    5.5690 H   0  0  0  0  0  0  0  0  0  0  0  0
  -40.3900   24.4050    4.1260 O   0  0  0  0  0  0  0  0  0  0  0  0
  -40.7310   23.4830    4.0640 H   0  0  0  0  0  0  0  0  0  0  0  0
  1  5  1  0  0  0  0
  1  2  1  0  0  0  0
  2  7  1  1  0  0  0
  2  3  1  0  0  0  0
  3 36  1  6  0  0  0
  3  4  1  0  0  0  0
  4 53  1  1  0  0  0
  5 50  1  1  0  0  0
  5  6  1  0  0  0  0
  6 55  1  6  0  0  0
  6  4  1  0  0  0  0
  8  7  1  6  0  0  0
  8  9  1  0  0  0  0
  8 35  1  0  0  0  0
  9 10  1  0  0  0  0
 10 12  2  0  0  0  0
 10 11  1  0  0  0  0
 11 15  1  6  0  0  0
 11 13  1  0  0  0  0
 12 19  1  0  0  0  0
 13 16  1  0  0  0  0
 13 17  1  6  0  0  0
 14 11  1  0  0  0  0
 16 19  1  1  0  0  0
 16 18  1  0  0  0  0
 17 23  1  0  0  0  0
 18 21  1  6  0  0  0
 18 20  1  0  0  0  0
 20 24  1  6  0  0  0
 20 22  1  0  0  0  0
 21 25  1  0  0  0  0
 22 26  1  0  0  0  0
 23 20  1  0  0  0  0
 25 22  1  0  0  0  0
 25 27  1  0  0  0  0
 26 28  1  0  0  0  0
 26 34  1  0  0  0  0
 27 29  1  0  0  0  0
 27 28  1  0  0  0  0
 30 28  1  0  0  0  0
 30 31  1  0  0  0  0
 32 29  1  0  0  0  0
 32 33  1  0  0  0  0
 32 31  1  0  0  0  0
 35 14  1  0  0  0  0
 36 37  1  0  0  0  0
 37 38  1  0  0  0  0
 38 39  1  0  0  0  0
 39 41  1  0  0  0  0
 40 39  1  0  0  0  0
 42 46  1  0  0  0  0
 42 40  1  0  0  0  0
 43 37  1  0  0  0  0
 43 42  1  0  0  0  0
 44 40  1  0  0  0  0
 45 44  1  0  0  0  0
 46 47  1  0  0  0  0
 48 49  1  0  0  0  0
 48 43  1  0  0  0  0
 51 50  1  0  0  0  0
 52 51  1  0  0  0  0
 53 54  1  0  0  0  0
 55 56  1  0  0  0  0
 56 57  1  0  0  0  0
 56 62  1  0  0  0  0
 57 58  1  0  0  0  0
 58 59  1  0  0  0  0
 59 63  1  0  0  0  0
 60 58  1  0  0  0  0
 61 59  1  0  0  0  0
 62 61  1  0  0  0  0
 64 63  1  0  0  0  0
 65 61  1  0  0  0  0
 66 65  1  0  0  0  0
 67 62  1  0  0  0  0
 68 67  1  0  0  0  0
M  END
>  <MODEL>
5

>  <REMARK>
 VINA RESULT:    -8.553     22.017     25.665
 INTER + INTRA:         -16.938
 INTER:                 -13.781
 INTRA:                  -3.157
 UNBOUND:                -2.884
  15 active torsions:
  status: ('A' for Active; 'I' for Inactive)
    1  A    between atoms: O1_1  and  C26_41 
    2  A    between atoms: O1_1  and  C28_43 
    3  A    between atoms: O3_3  and  C29_44 
    4  A    between atoms: O3_3  and  C34_49 
    5  A    between atoms: O4_4  and  C30_45 
    6  A    between atoms: O5_5  and  C32_47 
    7  A    between atoms: O5_5  and  C36_51 
    8  A    between atoms: O7_7  and  C33_48 
    9  A    between atoms: O9_9  and  C35_50 
   10  A    between atoms: O10_10  and  C37_52 
   11  A    between atoms: O11_11  and  C39_54 
   12  A    between atoms: O12_12  and  C40_55 
   13  A    between atoms: O13_13  and  C41_56 
   14  A    between atoms: O14_14  and  C43_58 
   15  A    between atoms: C31_46  and  C33_48 

>  <TORSDO>
F 15

$$$$
./ChaconinaA.pdbqt
 OpenBabel10282519553D

 68 76  0  0  1  0  0  0  0  0999 V2000
  -39.8470   38.1740   11.1660 O   0  0  0  0  0  0  0  0  0  0  0  0
  -39.7270   37.9540   12.5560 C   0  0  2  0  0  3  0  0  0  0  0  0
  -38.3500   37.4540   13.0670 C   0  0  1  0  0  3  0  0  0  0  0  0
  -37.1670   37.5900   12.0940 C   0  0  2  0  0  3  0  0  0  0  0  0
  -38.7120   38.6980   10.5040 C   0  0  1  0  0  3  0  0  0  0  0  0
  -37.6130   37.6300   10.6330 C   0  0  1  0  0  3  0  0  0  0  0  0
  -40.5960   36.8960   12.8730 O   0  0  0  0  0  0  0  0  0  0  0  0
  -41.6480   36.6270   11.9520 C   0  0  2  0  0  3  0  0  0  0  0  0
  -42.9740   37.2350   12.4240 C   0  0  0  0  0  2  0  0  0  0  0  0
  -44.1020   36.7490   11.5640 C   0  0  0  0  0  0  0  0  0  0  0  0
  -44.2220   35.2530   11.3840 C   0  0  1  0  0  0  0  0  0  0  0  0
  -44.9610   37.6330   11.0420 C   0  0  0  0  0  3  0  0  0  0  0  0
  -45.1980   34.9280   10.2110 C   0  0  2  0  0  3  0  0  0  0  0  0
  -42.8410   34.6520   11.0160 C   0  0  0  0  0  2  0  0  0  0  0  0
  -44.7170   34.6650   12.7160 C   0  0  0  0  0  1  0  0  0  0  0  0
  -46.4890   35.7740   10.3350 C   0  0  2  0  0  3  0  0  0  0  0  0
  -45.4930   33.4160   10.1230 C   0  0  0  0  0  2  0  0  0  0  0  0
  -47.4440   35.3680    9.2160 C   0  0  1  0  0  3  0  0  0  0  0  0
  -46.1310   37.2640   10.2000 C   0  0  0  0  0  2  0  0  0  0  0  0
  -47.8220   33.8590    9.2990 C   0  0  1  0  0  0  0  0  0  0  0  0
  -48.8050   36.0750    9.1440 C   0  0  0  0  0  2  0  0  0  0  0  0
  -48.8670   33.7620    8.1560 C   0  0  2  0  0  3  0  0  0  0  0  0
  -46.5360   33.0620    9.0490 C   0  0  0  0  0  2  0  0  0  0  0  0
  -48.4330   33.4780   10.6510 C   0  0  0  0  0  1  0  0  0  0  0  0
  -49.6390   35.1350    8.2360 C   0  0  1  0  0  3  0  0  0  0  0  0
  -49.9420   32.6600    8.2720 C   0  0  1  0  0  3  0  0  0  0  0  0
  -50.9170   34.7680    8.8740 N   0  0  2  0  0  0  0  0  0  0  0  0
  -51.2870   33.4350    8.3240 C   0  0  2  0  0  3  0  0  0  0  0  0
  -52.0260   35.7250    8.7370 C   0  0  0  0  0  2  0  0  0  0  0  0
  -52.3590   32.8400    9.2470 C   0  0  0  0  0  2  0  0  0  0  0  0
  -53.5830   33.7710    9.2300 C   0  0  0  0  0  2  0  0  0  0  0  0
  -53.1800   35.2040    9.6340 C   0  0  2  0  0  3  0  0  0  0  0  0
  -54.3780   36.1490    9.5310 C   0  0  0  0  0  1  0  0  0  0  0  0
  -49.9050   31.6950    7.0890 C   0  0  0  0  0  1  0  0  0  0  0  0
  -41.7220   35.0950   11.9580 C   0  0  0  0  0  2  0  0  0  0  0  0
  -38.0730   38.3450   14.1410 O   0  0  0  0  0  0  0  0  0  0  0  0
  -38.0690   37.7340   15.4040 C   0  0  2  0  0  3  0  0  0  0  0  0
  -39.0490   38.4480   16.1450 O   0  0  0  0  0  0  0  0  0  0  0  0
  -39.1940   38.0730   17.4880 C   0  0  2  0  0  3  0  0  0  0  0  0
  -37.8600   38.1200   18.2700 C   0  0  1  0  0  3  0  0  0  0  0  0
  -39.8490   36.7020   17.6120 C   0  0  0  0  0  1  0  0  0  0  0  0
  -36.6530   37.5910   17.4660 C   0  0  2  0  0  3  0  0  0  0  0  0
  -36.6790   38.0480   15.9960 C   0  0  1  0  0  3  0  0  0  0  0  0
  -37.6600   39.4920   18.5410 O   0  0  0  0  0  0  0  0  0  0  0  0
  -37.1060   39.6180   19.3360 H   0  0  0  0  0  0  0  0  0  0  0  0
  -36.7330   36.1760   17.3950 O   0  0  0  0  0  0  0  0  0  0  0  0
  -37.1100   35.8870   16.5440 H   0  0  0  0  0  0  0  0  0  0  0  0
  -35.6700   37.3900   15.2780 O   0  0  0  0  0  0  0  0  0  0  0  0
  -35.0280   38.0420   14.9180 H   0  0  0  0  0  0  0  0  0  0  0  0
  -39.1750   38.9170    9.0550 C   0  0  0  0  0  2  0  0  0  0  0  0
  -38.6030   40.0900    8.5270 O   0  0  0  0  0  0  0  0  0  0  0  0
  -38.0480   40.5360    9.2090 H   0  0  0  0  0  0  0  0  0  0  0  0
  -36.3500   36.4590   12.3350 O   0  0  0  0  0  0  0  0  0  0  0  0
  -36.0930   36.0380   11.4880 H   0  0  0  0  0  0  0  0  0  0  0  0
  -36.5430   37.8180    9.7390 O   0  0  0  0  0  0  0  0  0  0  0  0
  -35.7420   38.9630    9.8930 C   0  0  2  0  0  3  0  0  0  0  0  0
  -35.9210   39.7280    8.7180 O   0  0  0  0  0  0  0  0  0  0  0  0
  -35.1440   40.8930    8.5910 C   0  0  2  0  0  3  0  0  0  0  0  0
  -33.6380   40.5690    8.7070 C   0  0  1  0  0  3  0  0  0  0  0  0
  -35.5810   41.9630    9.5790 C   0  0  0  0  0  1  0  0  0  0  0  0
  -33.3040   39.5960    9.8580 C   0  0  2  0  0  3  0  0  0  0  0  0
  -34.2980   38.4200    9.9480 C   0  0  1  0  0  3  0  0  0  0  0  0
  -33.3420   39.9310    7.4840 O   0  0  0  0  0  0  0  0  0  0  0  0
  -33.5120   40.5160    6.7200 H   0  0  0  0  0  0  0  0  0  0  0  0
  -33.4580   40.2940   11.0830 O   0  0  0  0  0  0  0  0  0  0  0  0
  -33.9730   41.1140   10.9580 H   0  0  0  0  0  0  0  0  0  0  0  0
  -34.0950   37.7110   11.1380 O   0  0  0  0  0  0  0  0  0  0  0  0
  -33.3020   38.0580   11.6100 H   0  0  0  0  0  0  0  0  0  0  0  0
  1  2  1  0  0  0  0
  2  7  1  6  0  0  0
  2  3  1  0  0  0  0
  3 36  1  1  0  0  0
  4 53  1  6  0  0  0
  4  3  1  0  0  0  0
  5 50  1  6  0  0  0
  5  6  1  0  0  0  0
  5  1  1  0  0  0  0
  6 55  1  6  0  0  0
  6  4  1  0  0  0  0
  8 35  1  0  0  0  0
  8  9  1  0  0  0  0
  8  7  1  1  0  0  0
 10  9  1  0  0  0  0
 11 10  1  0  0  0  0
 11 15  1  1  0  0  0
 12 10  2  0  0  0  0
 13 17  1  1  0  0  0
 13 16  1  0  0  0  0
 13 11  1  0  0  0  0
 14 11  1  0  0  0  0
 14 35  1  0  0  0  0
 16 19  1  6  0  0  0
 18 21  1  1  0  0  0
 18 20  1  0  0  0  0
 18 16  1  0  0  0  0
 19 12  1  0  0  0  0
 20 24  1  1  0  0  0
 22 25  1  0  0  0  0
 22 26  1  0  0  0  0
 22 20  1  0  0  0  0
 23 20  1  0  0  0  0
 23 17  1  0  0  0  0
 25 27  1  0  0  0  0
 25 21  1  0  0  0  0
 26 28  1  0  0  0  0
 28 27  1  0  0  0  0
 28 30  1  0  0  0  0
 29 27  1  0  0  0  0
 29 32  1  0  0  0  0
 31 30  1  0  0  0  0
 31 32  1  0  0  0  0
 33 32  1  0  0  0  0
 34 26  1  0  0  0  0
 36 37  1  0  0  0  0
 37 43  1  0  0  0  0
 37 38  1  0  0  0  0
 38 39  1  0  0  0  0
 39 41  1  0  0  0  0
 39 40  1  0  0  0  0
 40 44  1  0  0  0  0
 42 40  1  0  0  0  0
 43 42  1  0  0  0  0
 44 45  1  0  0  0  0
 46 42  1  0  0  0  0
 47 46  1  0  0  0  0
 48 43  1  0  0  0  0
 49 48  1  0  0  0  0
 51 50  1  0  0  0  0
 51 52  1  0  0  0  0
 54 53  1  0  0  0  0
 55 56  1  0  0  0  0
 56 62  1  0  0  0  0
 57 56  1  0  0  0  0
 58 59  1  0  0  0  0
 58 57  1  0  0  0  0
 58 60  1  0  0  0  0
 59 61  1  0  0  0  0
 61 62  1  0  0  0  0
 61 65  1  0  0  0  0
 62 67  1  0  0  0  0
 63 59  1  0  0  0  0
 64 63  1  0  0  0  0
 66 65  1  0  0  0  0
 67 68  1  0  0  0  0
M  END
>  <MODEL>
6

>  <REMARK>
 VINA RESULT:    -8.475     18.176     22.975
 INTER + INTRA:         -16.809
 INTER:                 -14.336
 INTRA:                  -2.473
 UNBOUND:                -2.884
  15 active torsions:
  status: ('A' for Active; 'I' for Inactive)
    1  A    between atoms: O1_1  and  C26_41 
    2  A    between atoms: O1_1  and  C28_43 
    3  A    between atoms: O3_3  and  C29_44 
    4  A    between atoms: O3_3  and  C34_49 
    5  A    between atoms: O4_4  and  C30_45 
    6  A    between atoms: O5_5  and  C32_47 
    7  A    between atoms: O5_5  and  C36_51 
    8  A    between atoms: O7_7  and  C33_48 
    9  A    between atoms: O9_9  and  C35_50 
   10  A    between atoms: O10_10  and  C37_52 
   11  A    between atoms: O11_11  and  C39_54 
   12  A    between atoms: O12_12  and  C40_55 
   13  A    between atoms: O13_13  and  C41_56 
   14  A    between atoms: O14_14  and  C43_58 
   15  A    between atoms: C31_46  and  C33_48 

>  <TORSDO>
F 15

$$$$
./ChaconinaA.pdbqt
 OpenBabel10282519553D

 68 76  0  0  1  0  0  0  0  0999 V2000
  -37.1090   36.4580   15.4460 O   0  0  0  0  0  0  0  0  0  0  0  0
  -36.5320   36.9540   14.2550 C   0  0  2  0  0  3  0  0  0  0  0  0
  -36.7510   38.4600   13.9490 C   0  0  1  0  0  3  0  0  0  0  0  0
  -37.2460   39.3320   15.1150 C   0  0  2  0  0  3  0  0  0  0  0  0
  -37.1070   37.3250   16.5630 C   0  0  1  0  0  3  0  0  0  0  0  0
  -37.9910   38.5210   16.1750 C   0  0  1  0  0  3  0  0  0  0  0  0
  -37.1850   36.3070   13.1930 O   0  0  0  0  0  0  0  0  0  0  0  0
  -38.6030   36.2000   13.2760 C   0  0  2  0  0  3  0  0  0  0  0  0
  -39.0960   34.8560   12.7280 C   0  0  0  0  0  2  0  0  0  0  0  0
  -40.5900   34.8590   12.6140 C   0  0  0  0  0  0  0  0  0  0  0  0
  -41.2110   36.0140   11.8620 C   0  0  1  0  0  0  0  0  0  0  0  0
  -41.2930   33.8430   13.1300 C   0  0  0  0  0  3  0  0  0  0  0  0
  -42.7480   36.0660   12.1270 C   0  0  2  0  0  3  0  0  0  0  0  0
  -40.6110   37.3540   12.3610 C   0  0  0  0  0  2  0  0  0  0  0  0
  -40.8970   35.8170   10.3690 C   0  0  0  0  0  1  0  0  0  0  0  0
  -43.3670   34.6540   11.9780 C   0  0  2  0  0  3  0  0  0  0  0  0
  -43.4420   37.1090   11.2270 C   0  0  0  0  0  2  0  0  0  0  0  0
  -44.8780   34.7660   12.1670 C   0  0  1  0  0  3  0  0  0  0  0  0
  -42.7740   33.7270   13.0520 C   0  0  0  0  0  2  0  0  0  0  0  0
  -45.5240   35.7120   11.1110 C   0  0  1  0  0  0  0  0  0  0  0  0
  -45.7100   33.4810   12.0530 C   0  0  0  0  0  2  0  0  0  0  0  0
  -47.0270   35.5390   11.4530 C   0  0  2  0  0  3  0  0  0  0  0  0
  -44.9730   37.1180   11.3760 C   0  0  0  0  0  2  0  0  0  0  0  0
  -45.2220   35.2820    9.6720 C   0  0  0  0  0  1  0  0  0  0  0  0
  -47.1510   34.0150   11.8420 C   0  0  1  0  0  3  0  0  0  0  0  0
  -48.0430   35.7730   10.3140 C   0  0  1  0  0  3  0  0  0  0  0  0
  -47.7780   33.4110   10.6520 N   0  0  2  0  0  0  0  0  0  0  0  0
  -48.7670   34.4070   10.1550 C   0  0  2  0  0  3  0  0  0  0  0  0
  -48.3980   32.0900   10.8280 C   0  0  0  0  0  2  0  0  0  0  0  0
  -49.1300   34.0140    8.7170 C   0  0  0  0  0  2  0  0  0  0  0  0
  -49.7660   32.6140    8.7440 C   0  0  0  0  0  2  0  0  0  0  0  0
  -48.8160   31.6000    9.4160 C   0  0  2  0  0  3  0  0  0  0  0  0
  -49.4840   30.2280    9.5230 C   0  0  0  0  0  1  0  0  0  0  0  0
  -49.0320   36.8870   10.6460 C   0  0  0  0  0  1  0  0  0  0  0  0
  -39.0830   37.3550   12.3870 C   0  0  0  0  0  2  0  0  0  0  0  0
  -35.4340   38.9130   13.6580 O   0  0  0  0  0  0  0  0  0  0  0  0
  -35.2980   39.4990   12.3910 C   0  0  2  0  0  3  0  0  0  0  0  0
  -36.6250   39.8410   12.0160 O   0  0  0  0  0  0  0  0  0  0  0  0
  -36.7760   40.3900   10.7350 C   0  0  2  0  0  3  0  0  0  0  0  0
  -36.1690   39.4970    9.6260 C   0  0  1  0  0  3  0  0  0  0  0  0
  -36.2080   41.8030   10.6670 C   0  0  0  0  0  1  0  0  0  0  0  0
  -34.8210   38.8580   10.0160 C   0  0  2  0  0  3  0  0  0  0  0  0
  -34.8050   38.3600   11.4740 C   0  0  1  0  0  3  0  0  0  0  0  0
  -37.1220   38.4720    9.4390 O   0  0  0  0  0  0  0  0  0  0  0  0
  -36.6910   37.6250    9.2140 H   0  0  0  0  0  0  0  0  0  0  0  0
  -33.8100   39.8530    9.9750 O   0  0  0  0  0  0  0  0  0  0  0  0
  -32.9380   39.4620    9.7820 H   0  0  0  0  0  0  0  0  0  0  0  0
  -33.5070   37.9630   11.8240 O   0  0  0  0  0  0  0  0  0  0  0  0
  -33.0860   38.6430   12.3970 H   0  0  0  0  0  0  0  0  0  0  0  0
  -37.6960   36.4850   17.7080 C   0  0  0  0  0  2  0  0  0  0  0  0
  -39.0260   36.1270   17.4210 O   0  0  0  0  0  0  0  0  0  0  0  0
  -39.6100   36.9190   17.4620 H   0  0  0  0  0  0  0  0  0  0  0  0
  -38.1040   40.2930   14.5270 O   0  0  0  0  0  0  0  0  0  0  0  0
  -39.0410   40.0630   14.7000 H   0  0  0  0  0  0  0  0  0  0  0  0
  -38.3930   39.3000   17.2760 O   0  0  0  0  0  0  0  0  0  0  0  0
  -39.7690   39.4180   17.5400 C   0  0  2  0  0  3  0  0  0  0  0  0
  -40.4100   38.4680   16.7120 O   0  0  0  0  0  0  0  0  0  0  0  0
  -41.8160   38.4540   16.7280 C   0  0  2  0  0  3  0  0  0  0  0  0
  -42.3860   39.8420   16.3660 C   0  0  1  0  0  3  0  0  0  0  0  0
  -42.3520   37.9380   18.0540 C   0  0  0  0  0  1  0  0  0  0  0  0
  -41.6650   41.0090   17.0730 C   0  0  2  0  0  3  0  0  0  0  0  0
  -40.1310   40.8440   17.0740 C   0  0  1  0  0  3  0  0  0  0  0  0
  -42.1480   39.9460   14.9790 O   0  0  0  0  0  0  0  0  0  0  0  0
  -41.9160   40.8580   14.7180 H   0  0  0  0  0  0  0  0  0  0  0  0
  -42.0320   40.9880   18.4430 O   0  0  0  0  0  0  0  0  0  0  0  0
  -41.9080   41.8650   18.8530 H   0  0  0  0  0  0  0  0  0  0  0  0
  -39.5490   41.7910   17.9260 O   0  0  0  0  0  0  0  0  0  0  0  0
  -38.5680   41.7030   17.9140 H   0  0  0  0  0  0  0  0  0  0  0  0
  1  5  1  0  0  0  0
  2  7  1  6  0  0  0
  2  1  1  0  0  0  0
  3 36  1  1  0  0  0
  3  2  1  0  0  0  0
  3  4  1  0  0  0  0
  4 53  1  6  0  0  0
  4  6  1  0  0  0  0
  5 50  1  1  0  0  0
  6  5  1  0  0  0  0
  6 55  1  1  0  0  0
  8  7  1  6  0  0  0
  9  8  1  0  0  0  0
 10  9  1  0  0  0  0
 10 12  2  0  0  0  0
 11 15  1  6  0  0  0
 11 13  1  0  0  0  0
 11 14  1  0  0  0  0
 11 10  1  0  0  0  0
 13 17  1  6  0  0  0
 14 35  1  0  0  0  0
 16 13  1  0  0  0  0
 16 18  1  0  0  0  0
 16 19  1  1  0  0  0
 17 23  1  0  0  0  0
 18 21  1  6  0  0  0
 19 12  1  0  0  0  0
 20 24  1  6  0  0  0
 20 23  1  0  0  0  0
 20 22  1  0  0  0  0
 20 18  1  0  0  0  0
 22 25  1  0  0  0  0
 25 21  1  0  0  0  0
 26 34  1  0  0  0  0
 26 22  1  0  0  0  0
 27 29  1  0  0  0  0
 27 25  1  0  0  0  0
 28 26  1  0  0  0  0
 28 27  1  0  0  0  0
 30 31  1  0  0  0  0
 30 28  1  0  0  0  0
 31 32  1  0  0  0  0
 32 33  1  0  0  0  0
 32 29  1  0  0  0  0
 35  8  1  0  0  0  0
 37 36  1  0  0  0  0
 38 37  1  0  0  0  0
 39 38  1  0  0  0  0
 40 42  1  0  0  0  0
 40 39  1  0  0  0  0
 41 39  1  0  0  0  0
 42 43  1  0  0  0  0
 43 48  1  0  0  0  0
 43 37  1  0  0  0  0
 44 40  1  0  0  0  0
 45 44  1  0  0  0  0
 46 42  1  0  0  0  0
 47 46  1  0  0  0  0
 48 49  1  0  0  0  0
 51 52  1  0  0  0  0
 51 50  1  0  0  0  0
 53 54  1  0  0  0  0
 55 56  1  0  0  0  0
 57 58  1  0  0  0  0
 57 56  1  0  0  0  0
 58 60  1  0  0  0  0
 59 58  1  0  0  0  0
 59 61  1  0  0  0  0
 61 62  1  0  0  0  0
 61 65  1  0  0  0  0
 62 56  1  0  0  0  0
 62 67  1  0  0  0  0
 63 59  1  0  0  0  0
 64 63  1  0  0  0  0
 65 66  1  0  0  0  0
 68 67  1  0  0  0  0
M  END
>  <MODEL>
7

>  <REMARK>
 VINA RESULT:    -8.323     18.221     23.707
 INTER + INTRA:         -16.559
 INTER:                 -13.633
 INTRA:                  -2.926
 UNBOUND:                -2.884
  15 active torsions:
  status: ('A' for Active; 'I' for Inactive)
    1  A    between atoms: O1_1  and  C26_41 
    2  A    between atoms: O1_1  and  C28_43 
    3  A    between atoms: O3_3  and  C29_44 
    4  A    between atoms: O3_3  and  C34_49 
    5  A    between atoms: O4_4  and  C30_45 
    6  A    between atoms: O5_5  and  C32_47 
    7  A    between atoms: O5_5  and  C36_51 
    8  A    between atoms: O7_7  and  C33_48 
    9  A    between atoms: O9_9  and  C35_50 
   10  A    between atoms: O10_10  and  C37_52 
   11  A    between atoms: O11_11  and  C39_54 
   12  A    between atoms: O12_12  and  C40_55 
   13  A    between atoms: O13_13  and  C41_56 
   14  A    between atoms: O14_14  and  C43_58 
   15  A    between atoms: C31_46  and  C33_48 

>  <TORSDO>
F 15

$$$$
./ChaconinaA.pdbqt
 OpenBabel10282519553D

 68 76  0  0  1  0  0  0  0  0999 V2000
  -44.9550   29.5880    3.5840 O   0  0  0  0  0  0  0  0  0  0  0  0
  -44.7820   28.3370    2.9490 C   0  0  2  0  0  3  0  0  0  0  0  0
  -43.3770   27.6880    3.0600 C   0  0  1  0  0  3  0  0  0  0  0  0
  -42.4350   28.2690    4.1280 C   0  0  2  0  0  3  0  0  0  0  0  0
  -44.2790   29.7780    4.8110 C   0  0  1  0  0  3  0  0  0  0  0  0
  -42.7780   29.7150    4.4840 C   0  0  1  0  0  3  0  0  0  0  0  0
  -44.9290   28.5620    1.5700 O   0  0  0  0  0  0  0  0  0  0  0  0
  -46.1620   29.1270    1.1360 C   0  0  2  0  0  3  0  0  0  0  0  0
  -47.3500   28.2300    1.5050 C   0  0  0  0  0  2  0  0  0  0  0  0
  -48.6000   28.7270    0.8440 C   0  0  0  0  0  0  0  0  0  0  0  0
  -48.5330   28.9540   -0.6490 C   0  0  1  0  0  0  0  0  0  0  0  0
  -49.7080   28.9000    1.5740 C   0  0  0  0  0  3  0  0  0  0  0  0
  -49.7650   29.7850   -1.1230 C   0  0  2  0  0  3  0  0  0  0  0  0
  -47.2620   29.7690   -1.0030 C   0  0  0  0  0  2  0  0  0  0  0  0
  -48.4820   27.5730   -1.3260 C   0  0  0  0  0  1  0  0  0  0  0  0
  -51.0670   29.2140   -0.5090 C   0  0  2  0  0  3  0  0  0  0  0  0
  -49.8310   29.8720   -2.6620 C   0  0  0  0  0  2  0  0  0  0  0  0
  -52.2510   30.0060   -1.0610 C   0  0  1  0  0  3  0  0  0  0  0  0
  -51.0100   29.3600    1.0210 C   0  0  0  0  0  2  0  0  0  0  0  0
  -52.3400   29.9040   -2.6130 C   0  0  1  0  0  0  0  0  0  0  0  0
  -53.6580   29.6080   -0.5940 C   0  0  0  0  0  2  0  0  0  0  0  0
  -53.6630   30.6710   -2.8740 C   0  0  2  0  0  3  0  0  0  0  0  0
  -51.0900   30.5890   -3.1780 C   0  0  0  0  0  2  0  0  0  0  0  0
  -52.4240   28.4560   -3.1050 C   0  0  0  0  0  1  0  0  0  0  0  0
  -54.5770   30.2700   -1.6520 C   0  0  1  0  0  3  0  0  0  0  0  0
  -54.4580   30.2970   -4.1440 C   0  0  1  0  0  3  0  0  0  0  0  0
  -55.5130   29.2920   -2.2370 N   0  0  2  0  0  0  0  0  0  0  0  0
  -55.8230   29.7820   -3.6080 C   0  0  2  0  0  3  0  0  0  0  0  0
  -56.7450   29.0180   -1.4810 C   0  0  0  0  0  2  0  0  0  0  0  0
  -56.4400   28.6120   -4.3850 C   0  0  0  0  0  2  0  0  0  0  0  0
  -57.7370   28.1910   -3.6750 C   0  0  0  0  0  2  0  0  0  0  0  0
  -57.4590   27.8420   -2.1980 C   0  0  2  0  0  3  0  0  0  0  0  0
  -58.7620   27.5100   -1.4690 C   0  0  0  0  0  1  0  0  0  0  0  0
  -54.6450   31.4910   -5.0760 C   0  0  0  0  0  1  0  0  0  0  0  0
  -45.9880   29.1940   -0.3860 C   0  0  0  0  0  2  0  0  0  0  0  0
  -43.6790   26.3650    3.4880 O   0  0  0  0  0  0  0  0  0  0  0  0
  -43.6540   25.4110    2.4600 C   0  0  2  0  0  3  0  0  0  0  0  0
  -44.8820   24.7100    2.5980 O   0  0  0  0  0  0  0  0  0  0  0  0
  -45.0770   23.6380    1.7170 C   0  0  2  0  0  3  0  0  0  0  0  0
  -43.9200   22.6110    1.7590 C   0  0  1  0  0  3  0  0  0  0  0  0
  -45.3170   24.1280    0.2930 C   0  0  0  0  0  1  0  0  0  0  0  0
  -42.5230   23.2570    1.8610 C   0  0  2  0  0  3  0  0  0  0  0  0
  -42.4980   24.4570    2.8270 C   0  0  1  0  0  3  0  0  0  0  0  0
  -44.1610   21.8590    2.9300 O   0  0  0  0  0  0  0  0  0  0  0  0
  -43.6340   21.0360    2.9370 H   0  0  0  0  0  0  0  0  0  0  0  0
  -42.1810   23.8130    0.6020 O   0  0  0  0  0  0  0  0  0  0  0  0
  -41.2720   23.5720    0.3440 H   0  0  0  0  0  0  0  0  0  0  0  0
  -41.2610   25.1110    2.7360 O   0  0  0  0  0  0  0  0  0  0  0  0
  -41.0770   25.6070    3.5650 H   0  0  0  0  0  0  0  0  0  0  0  0
  -44.7340   31.1640    5.2940 C   0  0  0  0  0  2  0  0  0  0  0  0
  -44.1670   32.1750    4.4950 O   0  0  0  0  0  0  0  0  0  0  0  0
  -44.5770   32.1720    3.5990 H   0  0  0  0  0  0  0  0  0  0  0  0
  -41.1370   28.1880    3.5670 O   0  0  0  0  0  0  0  0  0  0  0  0
  -41.1650   28.4020    2.6110 H   0  0  0  0  0  0  0  0  0  0  0  0
  -41.9610   30.2350    5.5050 O   0  0  0  0  0  0  0  0  0  0  0  0
  -41.0340   31.2370    5.1690 C   0  0  2  0  0  3  0  0  0  0  0  0
  -41.1320   31.4080    3.7690 O   0  0  0  0  0  0  0  0  0  0  0  0
  -40.2280   32.3050    3.1720 C   0  0  2  0  0  3  0  0  0  0  0  0
  -38.7690   31.9120    3.4880 C   0  0  1  0  0  3  0  0  0  0  0  0
  -40.5350   33.7440    3.5590 C   0  0  0  0  0  1  0  0  0  0  0  0
  -38.5390   31.5290    4.9660 C   0  0  2  0  0  3  0  0  0  0  0  0
  -39.6600   30.6280    5.5250 C   0  0  1  0  0  3  0  0  0  0  0  0
  -38.5550   30.7670    2.6920 O   0  0  0  0  0  0  0  0  0  0  0  0
  -38.4040   29.9700    3.2360 H   0  0  0  0  0  0  0  0  0  0  0  0
  -38.6050   32.7130    5.7430 O   0  0  0  0  0  0  0  0  0  0  0  0
  -38.9800   33.4510    5.2270 H   0  0  0  0  0  0  0  0  0  0  0  0
  -39.5310   30.5100    6.9140 O   0  0  0  0  0  0  0  0  0  0  0  0
  -38.5920   30.3370    7.1560 H   0  0  0  0  0  0  0  0  0  0  0  0
  1  5  1  0  0  0  0
  2  7  1  6  0  0  0
  2  3  1  0  0  0  0
  2  1  1  0  0  0  0
  3 36  1  1  0  0  0
  3  4  1  0  0  0  0
  4 53  1  6  0  0  0
  4  6  1  0  0  0  0
  5 50  1  6  0  0  0
  6  5  1  0  0  0  0
  6 55  1  1  0  0  0
  8  9  1  0  0  0  0
  8  7  1  1  0  0  0
 10  9  1  0  0  0  0
 10 12  2  0  0  0  0
 11 15  1  6  0  0  0
 11 10  1  0  0  0  0
 13 17  1  6  0  0  0
 13 11  1  0  0  0  0
 13 16  1  0  0  0  0
 14 11  1  0  0  0  0
 14 35  1  0  0  0  0
 16 19  1  1  0  0  0
 18 21  1  1  0  0  0
 18 16  1  0  0  0  0
 19 12  1  0  0  0  0
 20 24  1  6  0  0  0
 20 18  1  0  0  0  0
 22 20  1  0  0  0  0
 22 25  1  0  0  0  0
 23 17  1  0  0  0  0
 23 20  1  0  0  0  0
 25 21  1  0  0  0  0
 26 28  1  0  0  0  0
 26 22  1  0  0  0  0
 27 25  1  0  0  0  0
 27 29  1  0  0  0  0
 28 27  1  0  0  0  0
 30 31  1  0  0  0  0
 30 28  1  0  0  0  0
 31 32  1  0  0  0  0
 32 29  1  0  0  0  0
 32 33  1  0  0  0  0
 34 26  1  0  0  0  0
 35  8  1  0  0  0  0
 37 38  1  0  0  0  0
 37 43  1  0  0  0  0
 37 36  1  0  0  0  0
 39 40  1  0  0  0  0
 39 38  1  0  0  0  0
 40 42  1  0  0  0  0
 40 44  1  0  0  0  0
 41 39  1  0  0  0  0
 42 43  1  0  0  0  0
 44 45  1  0  0  0  0
 46 42  1  0  0  0  0
 47 46  1  0  0  0  0
 48 43  1  0  0  0  0
 48 49  1  0  0  0  0
 51 50  1  0  0  0  0
 52 51  1  0  0  0  0
 54 53  1  0  0  0  0
 56 55  1  0  0  0  0
 56 62  1  0  0  0  0
 57 56  1  0  0  0  0
 58 59  1  0  0  0  0
 58 60  1  0  0  0  0
 58 57  1  0  0  0  0
 59 61  1  0  0  0  0
 61 62  1  0  0  0  0
 61 65  1  0  0  0  0
 62 67  1  0  0  0  0
 63 64  1  0  0  0  0
 63 59  1  0  0  0  0
 66 65  1  0  0  0  0
 67 68  1  0  0  0  0
M  END
>  <MODEL>
8

>  <REMARK>
 VINA RESULT:    -8.321     22.249     26.923
 INTER + INTRA:         -16.555
 INTER:                 -13.956
 INTRA:                  -2.599
 UNBOUND:                -2.884
  15 active torsions:
  status: ('A' for Active; 'I' for Inactive)
    1  A    between atoms: O1_1  and  C26_41 
    2  A    between atoms: O1_1  and  C28_43 
    3  A    between atoms: O3_3  and  C29_44 
    4  A    between atoms: O3_3  and  C34_49 
    5  A    between atoms: O4_4  and  C30_45 
    6  A    between atoms: O5_5  and  C32_47 
    7  A    between atoms: O5_5  and  C36_51 
    8  A    between atoms: O7_7  and  C33_48 
    9  A    between atoms: O9_9  and  C35_50 
   10  A    between atoms: O10_10  and  C37_52 
   11  A    between atoms: O11_11  and  C39_54 
   12  A    between atoms: O12_12  and  C40_55 
   13  A    between atoms: O13_13  and  C41_56 
   14  A    between atoms: O14_14  and  C43_58 
   15  A    between atoms: C31_46  and  C33_48 

>  <TORSDO>
F 15

$$$$
./ChaconinaA.pdbqt
 OpenBabel10282519553D

 68 76  0  0  1  0  0  0  0  0999 V2000
  -46.3280   29.0670    2.3920 O   0  0  0  0  0  0  0  0  0  0  0  0
  -45.1980   29.6980    2.9590 C   0  0  2  0  0  3  0  0  0  0  0  0
  -43.9580   29.8630    2.0390 C   0  0  1  0  0  3  0  0  0  0  0  0
  -44.1900   29.6640    0.5320 C   0  0  2  0  0  3  0  0  0  0  0  0
  -46.5970   29.3450    1.0320 C   0  0  1  0  0  3  0  0  0  0  0  0
  -45.4050   28.7830    0.2400 C   0  0  1  0  0  3  0  0  0  0  0  0
  -44.7350   28.8530    3.9810 O   0  0  0  0  0  0  0  0  0  0  0  0
  -45.5310   27.7120    4.2850 C   0  0  2  0  0  3  0  0  0  0  0  0
  -45.3460   27.2710    5.7410 C   0  0  0  0  0  2  0  0  0  0  0  0
  -46.0100   25.9480    5.9710 C   0  0  0  0  0  0  0  0  0  0  0  0
  -45.6500   24.8330    5.0160 C   0  0  1  0  0  0  0  0  0  0  0  0
  -46.8380   25.7970    7.0120 C   0  0  0  0  0  3  0  0  0  0  0  0
  -46.6590   23.6520    5.1600 C   0  0  2  0  0  3  0  0  0  0  0  0
  -45.7390   25.3410    3.5540 C   0  0  0  0  0  2  0  0  0  0  0  0
  -44.2110   24.3940    5.3380 C   0  0  0  0  0  1  0  0  0  0  0  0
  -46.8830   23.3150    6.6550 C   0  0  2  0  0  3  0  0  0  0  0  0
  -46.2130   22.4230    4.3420 C   0  0  0  0  0  2  0  0  0  0  0  0
  -47.8130   22.1080    6.7460 C   0  0  1  0  0  3  0  0  0  0  0  0
  -47.5290   24.5240    7.3540 C   0  0  0  0  0  2  0  0  0  0  0  0
  -47.2090   20.8600    6.0340 C   0  0  1  0  0  0  0  0  0  0  0  0
  -48.1720   21.5840    8.1430 C   0  0  0  0  0  2  0  0  0  0  0  0
  -48.2740   19.7880    6.3850 C   0  0  2  0  0  3  0  0  0  0  0  0
  -47.1210   21.1970    4.5410 C   0  0  0  0  0  2  0  0  0  0  0  0
  -45.8290   20.4800    6.5790 C   0  0  0  0  0  1  0  0  0  0  0  0
  -48.7110   20.1600    7.8550 C   0  0  1  0  0  3  0  0  0  0  0  0
  -47.8060   18.3170    6.4380 C   0  0  1  0  0  3  0  0  0  0  0  0
  -48.0230   19.1480    8.6790 N   0  0  2  0  0  0  0  0  0  0  0  0
  -48.0730   17.8780    7.9040 C   0  0  2  0  0  3  0  0  0  0  0  0
  -48.5240   18.9550   10.0480 C   0  0  0  0  0  2  0  0  0  0  0  0
  -47.0320   16.9290    8.5120 C   0  0  0  0  0  2  0  0  0  0  0  0
  -47.4150   16.6640    9.9770 C   0  0  0  0  0  2  0  0  0  0  0  0
  -47.5350   17.9910   10.7550 C   0  0  2  0  0  3  0  0  0  0  0  0
  -48.0040   17.7330   12.1880 C   0  0  0  0  0  1  0  0  0  0  0  0
  -48.5670   17.4370    5.4500 C   0  0  0  0  0  1  0  0  0  0  0  0
  -44.9830   26.6490    3.3250 C   0  0  0  0  0  2  0  0  0  0  0  0
  -43.6300   31.2380    2.2030 O   0  0  0  0  0  0  0  0  0  0  0  0
  -42.2520   31.4920    2.2720 C   0  0  2  0  0  3  0  0  0  0  0  0
  -41.9410   31.3790    3.6540 O   0  0  0  0  0  0  0  0  0  0  0  0
  -40.6140   31.6610    4.0070 C   0  0  2  0  0  3  0  0  0  0  0  0
  -40.1450   33.0500    3.5130 C   0  0  1  0  0  3  0  0  0  0  0  0
  -39.6680   30.5650    3.5260 C   0  0  0  0  0  1  0  0  0  0  0  0
  -40.6370   33.3990    2.0930 C   0  0  2  0  0  3  0  0  0  0  0  0
  -42.0960   32.9690    1.8520 C   0  0  1  0  0  3  0  0  0  0  0  0
  -40.7180   33.9600    4.4290 O   0  0  0  0  0  0  0  0  0  0  0  0
  -40.4370   33.7640    5.3440 H   0  0  0  0  0  0  0  0  0  0  0  0
  -39.8890   32.6480    1.1500 O   0  0  0  0  0  0  0  0  0  0  0  0
  -40.4720   32.2330    0.4880 H   0  0  0  0  0  0  0  0  0  0  0  0
  -42.4230   33.1410    0.4990 O   0  0  0  0  0  0  0  0  0  0  0  0
  -41.6130   33.0800   -0.0570 H   0  0  0  0  0  0  0  0  0  0  0  0
  -47.9150   28.6110    0.7400 C   0  0  0  0  0  2  0  0  0  0  0  0
  -47.8480   27.2790    1.1910 O   0  0  0  0  0  0  0  0  0  0  0  0
  -47.5880   26.6810    0.4520 H   0  0  0  0  0  0  0  0  0  0  0  0
  -43.0060   29.0580    0.0460 O   0  0  0  0  0  0  0  0  0  0  0  0
  -42.5740   28.5390    0.7560 H   0  0  0  0  0  0  0  0  0  0  0  0
  -45.6620   28.6470   -1.1370 O   0  0  0  0  0  0  0  0  0  0  0  0
  -45.4960   27.3800   -1.7220 C   0  0  2  0  0  3  0  0  0  0  0  0
  -44.4630   26.7440   -0.9950 O   0  0  0  0  0  0  0  0  0  0  0  0
  -44.0450   25.4820   -1.4520 C   0  0  2  0  0  3  0  0  0  0  0  0
  -43.5970   25.5500   -2.9280 C   0  0  1  0  0  3  0  0  0  0  0  0
  -45.1140   24.4250   -1.2220 C   0  0  0  0  0  1  0  0  0  0  0  0
  -44.5510   26.3660   -3.8260 C   0  0  2  0  0  3  0  0  0  0  0  0
  -45.0160   27.6770   -3.1590 C   0  0  1  0  0  3  0  0  0  0  0  0
  -42.3580   26.2220   -2.8670 O   0  0  0  0  0  0  0  0  0  0  0  0
  -42.4730   27.1800   -2.7180 H   0  0  0  0  0  0  0  0  0  0  0  0
  -45.7390   25.6120   -4.0070 O   0  0  0  0  0  0  0  0  0  0  0  0
  -45.7320   24.8090   -3.4530 H   0  0  0  0  0  0  0  0  0  0  0  0
  -46.0520   28.2520   -3.9040 O   0  0  0  0  0  0  0  0  0  0  0  0
  -46.2080   29.1800   -3.6110 H   0  0  0  0  0  0  0  0  0  0  0  0
  1  2  1  0  0  0  0
  2  7  1  1  0  0  0
  3 36  1  6  0  0  0
  3  2  1  0  0  0  0
  4 53  1  1  0  0  0
  4  3  1  0  0  0  0
  5 50  1  6  0  0  0
  5  1  1  0  0  0  0
  6 55  1  6  0  0  0
  6  4  1  0  0  0  0
  6  5  1  0  0  0  0
  8  7  1  1  0  0  0
  8  9  1  0  0  0  0
  9 10  1  0  0  0  0
 10 12  2  0  0  0  0
 11 13  1  0  0  0  0
 11 15  1  1  0  0  0
 11 10  1  0  0  0  0
 12 19  1  0  0  0  0
 13 17  1  6  0  0  0
 13 16  1  0  0  0  0
 14 11  1  0  0  0  0
 16 18  1  0  0  0  0
 16 19  1  1  0  0  0
 17 23  1  0  0  0  0
 18 21  1  1  0  0  0
 20 22  1  0  0  0  0
 20 24  1  1  0  0  0
 20 18  1  0  0  0  0
 22 26  1  0  0  0  0
 22 25  1  0  0  0  0
 23 20  1  0  0  0  0
 25 21  1  0  0  0  0
 25 27  1  0  0  0  0
 26 28  1  0  0  0  0
 27 29  1  0  0  0  0
 28 30  1  0  0  0  0
 28 27  1  0  0  0  0
 29 32  1  0  0  0  0
 30 31  1  0  0  0  0
 31 32  1  0  0  0  0
 32 33  1  0  0  0  0
 34 26  1  0  0  0  0
 35 14  1  0  0  0  0
 35  8  1  0  0  0  0
 36 37  1  0  0  0  0
 37 38  1  0  0  0  0
 38 39  1  0  0  0  0
 40 39  1  0  0  0  0
 40 44  1  0  0  0  0
 41 39  1  0  0  0  0
 42 40  1  0  0  0  0
 43 42  1  0  0  0  0
 43 37  1  0  0  0  0
 44 45  1  0  0  0  0
 46 42  1  0  0  0  0
 47 46  1  0  0  0  0
 48 43  1  0  0  0  0
 49 48  1  0  0  0  0
 50 51  1  0  0  0  0
 52 51  1  0  0  0  0
 53 54  1  0  0  0  0
 56 55  1  0  0  0  0
 56 57  1  0  0  0  0
 58 60  1  0  0  0  0
 58 57  1  0  0  0  0
 59 63  1  0  0  0  0
 59 58  1  0  0  0  0
 61 62  1  0  0  0  0
 61 59  1  0  0  0  0
 62 56  1  0  0  0  0
 63 64  1  0  0  0  0
 65 61  1  0  0  0  0
 65 66  1  0  0  0  0
 67 68  1  0  0  0  0
 67 62  1  0  0  0  0
M  END
>  <MODEL>
9

>  <REMARK>
 VINA RESULT:    -8.263     24.023     27.333
 INTER + INTRA:         -16.461
 INTER:                 -14.396
 INTRA:                  -2.065
 UNBOUND:                -2.884
  15 active torsions:
  status: ('A' for Active; 'I' for Inactive)
    1  A    between atoms: O1_1  and  C26_41 
    2  A    between atoms: O1_1  and  C28_43 
    3  A    between atoms: O3_3  and  C29_44 
    4  A    between atoms: O3_3  and  C34_49 
    5  A    between atoms: O4_4  and  C30_45 
    6  A    between atoms: O5_5  and  C32_47 
    7  A    between atoms: O5_5  and  C36_51 
    8  A    between atoms: O7_7  and  C33_48 
    9  A    between atoms: O9_9  and  C35_50 
   10  A    between atoms: O10_10  and  C37_52 
   11  A    between atoms: O11_11  and  C39_54 
   12  A    between atoms: O12_12  and  C40_55 
   13  A    between atoms: O13_13  and  C41_56 
   14  A    between atoms: O14_14  and  C43_58 
   15  A    between atoms: C31_46  and  C33_48 

>  <TORSDO>
F 15

$$$$
./ChaconinaA.pdbqt
 OpenBabel10282519553D

 68 76  0  0  1  0  0  0  0  0999 V2000
  -29.7840   44.5360   -2.6350 O   0  0  0  0  0  0  0  0  0  0  0  0
  -30.4550   45.2070   -1.5890 C   0  0  2  0  0  3  0  0  0  0  0  0
  -29.6630   45.4110   -0.2700 C   0  0  1  0  0  3  0  0  0  0  0  0
  -28.1420   45.1990   -0.3440 C   0  0  2  0  0  3  0  0  0  0  0  0
  -28.4020   44.8000   -2.7770 C   0  0  1  0  0  3  0  0  0  0  0  0
  -27.7360   44.2770   -1.4930 C   0  0  1  0  0  3  0  0  0  0  0  0
  -31.5240   44.3810   -1.2020 O   0  0  0  0  0  0  0  0  0  0  0  0
  -32.8390   44.8760   -1.4360 C   0  0  2  0  0  3  0  0  0  0  0  0
  -32.8280   46.0560   -2.4150 C   0  0  0  0  0  2  0  0  0  0  0  0
  -34.1800   46.6990   -2.4670 C   0  0  0  0  0  0  0  0  0  0  0  0
  -34.7950   47.0950   -1.1440 C   0  0  1  0  0  0  0  0  0  0  0  0
  -34.7540   46.9330   -3.6540 C   0  0  0  0  0  3  0  0  0  0  0  0
  -36.3110   47.4170   -1.3290 C   0  0  2  0  0  3  0  0  0  0  0  0
  -34.6920   45.9180   -0.1400 C   0  0  0  0  0  2  0  0  0  0  0  0
  -34.0150   48.3110   -0.6160 C   0  0  0  0  0  1  0  0  0  0  0  0
  -36.5190   48.3370   -2.5570 C   0  0  2  0  0  3  0  0  0  0  0  0
  -36.9250   48.0080   -0.0430 C   0  0  0  0  0  2  0  0  0  0  0  0
  -38.0020   48.6890   -2.6530 C   0  0  1  0  0  3  0  0  0  0  0  0
  -36.0780   47.5900   -3.8280 C   0  0  0  0  0  2  0  0  0  0  0  0
  -38.5020   49.4320   -1.3780 C   0  0  1  0  0  0  0  0  0  0  0  0
  -38.4470   49.6050   -3.8000 C   0  0  0  0  0  2  0  0  0  0  0  0
  -39.9580   49.7670   -1.7960 C   0  0  2  0  0  3  0  0  0  0  0  0
  -38.3900   48.4420   -0.2120 C   0  0  0  0  0  2  0  0  0  0  0  0
  -37.6970   50.7010   -1.0820 C   0  0  0  0  0  1  0  0  0  0  0  0
  -39.8420   50.0970   -3.3340 C   0  0  1  0  0  3  0  0  0  0  0  0
  -40.6140   51.0020   -1.1410 C   0  0  1  0  0  3  0  0  0  0  0  0
  -39.9320   51.5690   -3.3710 N   0  0  2  0  0  0  0  0  0  0  0  0
  -40.9280   51.9500   -2.3320 C   0  0  2  0  0  3  0  0  0  0  0  0
  -40.2590   52.1800   -4.6680 C   0  0  0  0  0  2  0  0  0  0  0  0
  -40.7470   53.4470   -2.0520 C   0  0  0  0  0  2  0  0  0  0  0  0
  -41.0260   54.2200   -3.3520 C   0  0  0  0  0  2  0  0  0  0  0  0
  -40.1150   53.7140   -4.4890 C   0  0  2  0  0  3  0  0  0  0  0  0
  -40.4540   54.4200   -5.8030 C   0  0  0  0  0  1  0  0  0  0  0  0
  -41.8840   50.6390   -0.3750 C   0  0  0  0  0  1  0  0  0  0  0  0
  -33.2830   45.3340   -0.0420 C   0  0  0  0  0  2  0  0  0  0  0  0
  -29.8490   46.7970   -0.0060 O   0  0  0  0  0  0  0  0  0  0  0  0
  -29.9510   47.1110    1.3570 C   0  0  2  0  0  3  0  0  0  0  0  0
  -30.2390   45.8690    1.9850 O   0  0  0  0  0  0  0  0  0  0  0  0
  -30.4610   45.9200    3.3680 C   0  0  2  0  0  3  0  0  0  0  0  0
  -31.5630   46.9330    3.7600 C   0  0  1  0  0  3  0  0  0  0  0  0
  -29.1680   46.2010    4.1270 C   0  0  0  0  0  1  0  0  0  0  0  0
  -31.5050   48.2500    2.9580 C   0  0  2  0  0  3  0  0  0  0  0  0
  -31.1940   48.0180    1.4680 C   0  0  1  0  0  3  0  0  0  0  0  0
  -32.7730   46.2700    3.4610 O   0  0  0  0  0  0  0  0  0  0  0  0
  -33.2680   46.0520    4.2740 H   0  0  0  0  0  0  0  0  0  0  0  0
  -30.4160   49.0280    3.4270 O   0  0  0  0  0  0  0  0  0  0  0  0
  -29.5750   48.7340    3.0300 H   0  0  0  0  0  0  0  0  0  0  0  0
  -30.9720   49.2490    0.8340 O   0  0  0  0  0  0  0  0  0  0  0  0
  -30.1950   49.1880    0.2340 H   0  0  0  0  0  0  0  0  0  0  0  0
  -27.9850   44.0200   -4.0340 C   0  0  0  0  0  2  0  0  0  0  0  0
  -29.0150   43.1490   -4.4370 O   0  0  0  0  0  0  0  0  0  0  0  0
  -29.1580   43.2160   -5.4100 H   0  0  0  0  0  0  0  0  0  0  0  0
  -27.7800   44.6330    0.9020 O   0  0  0  0  0  0  0  0  0  0  0  0
  -26.8190   44.7430    1.0610 H   0  0  0  0  0  0  0  0  0  0  0  0
  -26.3410   44.1270   -1.6080 O   0  0  0  0  0  0  0  0  0  0  0  0
  -25.7240   43.0880   -0.8900 C   0  0  2  0  0  3  0  0  0  0  0  0
  -26.7700   42.3460   -0.2960 O   0  0  0  0  0  0  0  0  0  0  0  0
  -26.3980   41.2930    0.5590 C   0  0  2  0  0  3  0  0  0  0  0  0
  -25.4860   41.8000    1.6970 C   0  0  1  0  0  3  0  0  0  0  0  0
  -25.7690   40.1440   -0.2150 C   0  0  0  0  0  1  0  0  0  0  0  0
  -24.3840   42.7690    1.2190 C   0  0  2  0  0  3  0  0  0  0  0  0
  -24.9060   43.8070    0.2040 C   0  0  1  0  0  3  0  0  0  0  0  0
  -26.3710   42.5100    2.5370 O   0  0  0  0  0  0  0  0  0  0  0  0
  -26.8980   41.9090    3.0990 H   0  0  0  0  0  0  0  0  0  0  0  0
  -23.4170   42.0180    0.5030 O   0  0  0  0  0  0  0  0  0  0  0  0
  -23.5030   41.0640    0.6930 H   0  0  0  0  0  0  0  0  0  0  0  0
  -23.8320   44.4960   -0.3710 O   0  0  0  0  0  0  0  0  0  0  0  0
  -24.1610   45.1600   -1.0200 H   0  0  0  0  0  0  0  0  0  0  0  0
  1  2  1  0  0  0  0
  2  7  1  1  0  0  0
  2  3  1  0  0  0  0
  3 36  1  6  0  0  0
  4  3  1  0  0  0  0
  4 53  1  1  0  0  0
  5 50  1  6  0  0  0
  5  1  1  0  0  0  0
  5  6  1  0  0  0  0
  6 55  1  6  0  0  0
  6  4  1  0  0  0  0
  8  7  1  1  0  0  0
  8 35  1  0  0  0  0
  9  8  1  0  0  0  0
 10  9  1  0  0  0  0
 10 11  1  0  0  0  0
 11 15  1  1  0  0  0
 11 14  1  0  0  0  0
 12 10  2  0  0  0  0
 13 11  1  0  0  0  0
 13 17  1  1  0  0  0
 14 35  1  0  0  0  0
 16 19  1  6  0  0  0
 16 13  1  0  0  0  0
 18 21  1  6  0  0  0
 18 16  1  0  0  0  0
 18 20  1  0  0  0  0
 19 12  1  0  0  0  0
 20 24  1  1  0  0  0
 20 23  1  0  0  0  0
 21 25  1  0  0  0  0
 22 20  1  0  0  0  0
 22 26  1  0  0  0  0
 23 17  1  0  0  0  0
 25 22  1  0  0  0  0
 26 34  1  0  0  0  0
 27 25  1  0  0  0  0
 27 28  1  0  0  0  0
 28 30  1  0  0  0  0
 28 26  1  0  0  0  0
 29 32  1  0  0  0  0
 29 27  1  0  0  0  0
 31 30  1  0  0  0  0
 32 31  1  0  0  0  0
 33 32  1  0  0  0  0
 36 37  1  0  0  0  0
 37 43  1  0  0  0  0
 37 38  1  0  0  0  0
 38 39  1  0  0  0  0
 39 40  1  0  0  0  0
 39 41  1  0  0  0  0
 42 46  1  0  0  0  0
 42 40  1  0  0  0  0
 43 42  1  0  0  0  0
 44 40  1  0  0  0  0
 44 45  1  0  0  0  0
 47 46  1  0  0  0  0
 48 43  1  0  0  0  0
 49 48  1  0  0  0  0
 51 50  1  0  0  0  0
 52 51  1  0  0  0  0
 53 54  1  0  0  0  0
 55 56  1  0  0  0  0
 56 57  1  0  0  0  0
 56 62  1  0  0  0  0
 57 58  1  0  0  0  0
 58 59  1  0  0  0  0
 59 63  1  0  0  0  0
 60 58  1  0  0  0  0
 61 59  1  0  0  0  0
 62 61  1  0  0  0  0
 63 64  1  0  0  0  0
 65 66  1  0  0  0  0
 65 61  1  0  0  0  0
 67 62  1  0  0  0  0
 68 67  1  0  0  0  0
M  END
>  <MODEL>
10

>  <REMARK>
 VINA RESULT:    -8.236      5.186     10.459
 INTER + INTRA:         -16.416
 INTER:                 -13.983
 INTRA:                  -2.433
 UNBOUND:                -2.884
  15 active torsions:
  status: ('A' for Active; 'I' for Inactive)
    1  A    between atoms: O1_1  and  C26_41 
    2  A    between atoms: O1_1  and  C28_43 
    3  A    between atoms: O3_3  and  C29_44 
    4  A    between atoms: O3_3  and  C34_49 
    5  A    between atoms: O4_4  and  C30_45 
    6  A    between atoms: O5_5  and  C32_47 
    7  A    between atoms: O5_5  and  C36_51 
    8  A    between atoms: O7_7  and  C33_48 
    9  A    between atoms: O9_9  and  C35_50 
   10  A    between atoms: O10_10  and  C37_52 
   11  A    between atoms: O11_11  and  C39_54 
   12  A    between atoms: O12_12  and  C40_55 
   13  A    between atoms: O13_13  and  C41_56 
   14  A    between atoms: O14_14  and  C43_58 
   15  A    between atoms: C31_46  and  C33_48 

>  <TORSDO>
F 15

$$$$
./ChaconinaA.pdbqt
 OpenBabel10282519553D

 68 76  0  0  1  0  0  0  0  0999 V2000
  -43.0390   26.4100    3.5580 O   0  0  0  0  0  0  0  0  0  0  0  0
  -43.8870   26.4790    2.4300 C   0  0  2  0  0  3  0  0  0  0  0  0
  -43.7480   27.7360    1.5300 C   0  0  1  0  0  3  0  0  0  0  0  0
  -42.4850   28.5900    1.7340 C   0  0  2  0  0  3  0  0  0  0  0  0
  -41.7290   26.9190    3.4020 C   0  0  1  0  0  3  0  0  0  0  0  0
  -41.8880   28.4240    3.1310 C   0  0  1  0  0  3  0  0  0  0  0  0
  -45.2010   26.5730    2.9190 O   0  0  0  0  0  0  0  0  0  0  0  0
  -45.5840   27.8130    3.5050 C   0  0  2  0  0  3  0  0  0  0  0  0
  -45.2460   27.8560    5.0000 C   0  0  0  0  0  2  0  0  0  0  0  0
  -45.8600   29.0660    5.6360 C   0  0  0  0  0  0  0  0  0  0  0  0
  -47.3390   29.2760    5.4080 C   0  0  1  0  0  0  0  0  0  0  0  0
  -45.1040   29.8640    6.3990 C   0  0  0  0  0  3  0  0  0  0  0  0
  -47.7490   30.7230    5.8230 C   0  0  2  0  0  3  0  0  0  0  0  0
  -47.6690   29.1160    3.9010 C   0  0  0  0  0  2  0  0  0  0  0  0
  -48.0900   28.2130    6.2290 C   0  0  0  0  0  1  0  0  0  0  0  0
  -47.1460   31.0760    7.2050 C   0  0  2  0  0  3  0  0  0  0  0  0
  -49.2800   30.9110    5.7840 C   0  0  0  0  0  2  0  0  0  0  0  0
  -47.6360   32.4660    7.6050 C   0  0  1  0  0  3  0  0  0  0  0  0
  -45.6110   31.0740    7.1020 C   0  0  0  0  0  2  0  0  0  0  0  0
  -49.1900   32.5240    7.7040 C   0  0  1  0  0  0  0  0  0  0  0  0
  -47.1690   33.0280    8.9550 C   0  0  0  0  0  2  0  0  0  0  0  0
  -49.3880   33.9680    8.2350 C   0  0  2  0  0  3  0  0  0  0  0  0
  -49.7360   32.2890    6.2910 C   0  0  0  0  0  2  0  0  0  0  0  0
  -49.7570   31.4860    8.6770 C   0  0  0  0  0  1  0  0  0  0  0  0
  -48.1760   34.1760    9.2230 C   0  0  1  0  0  3  0  0  0  0  0  0
  -50.6640   34.2490    9.0590 C   0  0  1  0  0  3  0  0  0  0  0  0
  -48.7980   34.0450   10.5540 N   0  0  2  0  0  0  0  0  0  0  0  0
  -50.1360   34.6900   10.4520 C   0  0  2  0  0  3  0  0  0  0  0  0
  -48.0390   34.5760   11.6960 C   0  0  0  0  0  2  0  0  0  0  0  0
  -50.9650   34.2190   11.6530 C   0  0  0  0  0  2  0  0  0  0  0  0
  -50.2580   34.6800   12.9390 C   0  0  0  0  0  2  0  0  0  0  0  0
  -48.8070   34.1580   12.9780 C   0  0  2  0  0  3  0  0  0  0  0  0
  -48.0770   34.6900   14.2120 C   0  0  0  0  0  1  0  0  0  0  0  0
  -51.5280   35.3380    8.4260 C   0  0  0  0  0  1  0  0  0  0  0  0
  -47.1040   27.8330    3.2940 C   0  0  0  0  0  2  0  0  0  0  0  0
  -43.6310   27.1760    0.2280 O   0  0  0  0  0  0  0  0  0  0  0  0
  -43.8340   28.0960   -0.8110 C   0  0  2  0  0  3  0  0  0  0  0  0
  -45.1330   28.6190   -0.5710 O   0  0  0  0  0  0  0  0  0  0  0  0
  -45.6130   29.5270   -1.5250 C   0  0  2  0  0  3  0  0  0  0  0  0
  -45.5740   28.9590   -2.9640 C   0  0  1  0  0  3  0  0  0  0  0  0
  -44.8730   30.8580   -1.4450 C   0  0  0  0  0  1  0  0  0  0  0  0
  -44.2990   28.1460   -3.2730 C   0  0  2  0  0  3  0  0  0  0  0  0
  -43.8770   27.2440   -2.0980 C   0  0  1  0  0  3  0  0  0  0  0  0
  -46.6910   28.0990   -3.0330 O   0  0  0  0  0  0  0  0  0  0  0  0
  -46.5060   27.2430   -2.6000 H   0  0  0  0  0  0  0  0  0  0  0  0
  -43.2110   29.0410   -3.4370 O   0  0  0  0  0  0  0  0  0  0  0  0
  -43.2050   29.7210   -2.7390 H   0  0  0  0  0  0  0  0  0  0  0  0
  -42.6230   26.6770   -2.3640 O   0  0  0  0  0  0  0  0  0  0  0  0
  -42.4730   26.6230   -3.3340 H   0  0  0  0  0  0  0  0  0  0  0  0
  -41.0340   26.6160    4.7390 C   0  0  0  0  0  2  0  0  0  0  0  0
  -40.2580   25.4460    4.6360 O   0  0  0  0  0  0  0  0  0  0  0  0
  -40.6810   24.8080    4.0150 H   0  0  0  0  0  0  0  0  0  0  0  0
  -42.8970   29.9280    1.5230 O   0  0  0  0  0  0  0  0  0  0  0  0
  -43.6970   29.9520    0.9570 H   0  0  0  0  0  0  0  0  0  0  0  0
  -40.6970   29.1520    3.3060 O   0  0  0  0  0  0  0  0  0  0  0  0
  -40.7930   30.5010    3.6900 C   0  0  2  0  0  3  0  0  0  0  0  0
  -40.8020   31.2500    2.4910 O   0  0  0  0  0  0  0  0  0  0  0  0
  -40.8010   32.6510    2.6140 C   0  0  2  0  0  3  0  0  0  0  0  0
  -39.5940   33.1310    3.4490 C   0  0  1  0  0  3  0  0  0  0  0  0
  -42.1230   33.1620    3.1640 C   0  0  0  0  0  1  0  0  0  0  0  0
  -39.3510   32.2920    4.7210 C   0  0  2  0  0  3  0  0  0  0  0  0
  -39.4870   30.7760    4.4660 C   0  0  1  0  0  3  0  0  0  0  0  0
  -38.4970   32.9510    2.5800 O   0  0  0  0  0  0  0  0  0  0  0  0
  -38.3180   33.7540    2.0520 H   0  0  0  0  0  0  0  0  0  0  0  0
  -40.3770   32.5950    5.6520 O   0  0  0  0  0  0  0  0  0  0  0  0
  -41.1490   32.0110    5.5260 H   0  0  0  0  0  0  0  0  0  0  0  0
  -39.4950   30.0850    5.6830 O   0  0  0  0  0  0  0  0  0  0  0  0
  -38.6210   29.6590    5.8400 H   0  0  0  0  0  0  0  0  0  0  0  0
  2  7  1  1  0  0  0
  2  1  1  0  0  0  0
  3 36  1  6  0  0  0
  3  4  1  0  0  0  0
  3  2  1  0  0  0  0
  4 53  1  1  0  0  0
  4  6  1  0  0  0  0
  5  1  1  0  0  0  0
  5 50  1  1  0  0  0
  6 55  1  6  0  0  0
  6  5  1  0  0  0  0
  8  7  1  1  0  0  0
  8  9  1  0  0  0  0
  9 10  1  0  0  0  0
 10 12  2  0  0  0  0
 11 10  1  0  0  0  0
 11 13  1  0  0  0  0
 11 15  1  1  0  0  0
 12 19  1  0  0  0  0
 13 17  1  1  0  0  0
 13 16  1  0  0  0  0
 14 11  1  0  0  0  0
 16 19  1  6  0  0  0
 16 18  1  0  0  0  0
 17 23  1  0  0  0  0
 18 20  1  0  0  0  0
 18 21  1  1  0  0  0
 20 22  1  0  0  0  0
 20 24  1  1  0  0  0
 21 25  1  0  0  0  0
 22 26  1  0  0  0  0
 22 25  1  0  0  0  0
 23 20  1  0  0  0  0
 25 27  1  0  0  0  0
 26 28  1  0  0  0  0
 27 29  1  0  0  0  0
 28 27  1  0  0  0  0
 28 30  1  0  0  0  0
 29 32  1  0  0  0  0
 30 31  1  0  0  0  0
 31 32  1  0  0  0  0
 32 33  1  0  0  0  0
 34 26  1  0  0  0  0
 35  8  1  0  0  0  0
 35 14  1  0  0  0  0
 37 38  1  0  0  0  0
 37 36  1  0  0  0  0
 39 41  1  0  0  0  0
 39 38  1  0  0  0  0
 40 39  1  0  0  0  0
 42 40  1  0  0  0  0
 42 43  1  0  0  0  0
 43 37  1  0  0  0  0
 44 40  1  0  0  0  0
 44 45  1  0  0  0  0
 46 42  1  0  0  0  0
 46 47  1  0  0  0  0
 48 43  1  0  0  0  0
 49 48  1  0  0  0  0
 51 50  1  0  0  0  0
 52 51  1  0  0  0  0
 54 53  1  0  0  0  0
 55 56  1  0  0  0  0
 56 62  1  0  0  0  0
 57 58  1  0  0  0  0
 57 56  1  0  0  0  0
 58 60  1  0  0  0  0
 58 59  1  0  0  0  0
 59 61  1  0  0  0  0
 61 65  1  0  0  0  0
 62 61  1  0  0  0  0
 62 67  1  0  0  0  0
 63 59  1  0  0  0  0
 64 63  1  0  0  0  0
 66 65  1  0  0  0  0
 67 68  1  0  0  0  0
M  END
>  <MODEL>
11

>  <REMARK>
 VINA RESULT:    -8.230     20.552     24.031
 INTER + INTRA:         -16.407
 INTER:                 -14.477
 INTRA:                  -1.930
 UNBOUND:                -2.884
  15 active torsions:
  status: ('A' for Active; 'I' for Inactive)
    1  A    between atoms: O1_1  and  C26_41 
    2  A    between atoms: O1_1  and  C28_43 
    3  A    between atoms: O3_3  and  C29_44 
    4  A    between atoms: O3_3  and  C34_49 
    5  A    between atoms: O4_4  and  C30_45 
    6  A    between atoms: O5_5  and  C32_47 
    7  A    between atoms: O5_5  and  C36_51 
    8  A    between atoms: O7_7  and  C33_48 
    9  A    between atoms: O9_9  and  C35_50 
   10  A    between atoms: O10_10  and  C37_52 
   11  A    between atoms: O11_11  and  C39_54 
   12  A    between atoms: O12_12  and  C40_55 
   13  A    between atoms: O13_13  and  C41_56 
   14  A    between atoms: O14_14  and  C43_58 
   15  A    between atoms: C31_46  and  C33_48 

>  <TORSDO>
F 15

$$$$
./ChaconinaA.pdbqt
 OpenBabel10282519553D

 68 76  0  0  1  0  0  0  0  0999 V2000
  -36.0990   36.7110   14.1750 O   0  0  0  0  0  0  0  0  0  0  0  0
  -35.7870   37.3300   12.9440 C   0  0  2  0  0  3  0  0  0  0  0  0
  -35.9540   38.8720   12.8770 C   0  0  1  0  0  3  0  0  0  0  0  0
  -36.0860   39.6060   14.2210 C   0  0  2  0  0  3  0  0  0  0  0  0
  -35.7610   37.4230   15.3490 C   0  0  1  0  0  3  0  0  0  0  0  0
  -36.6170   38.7010   15.3320 C   0  0  1  0  0  3  0  0  0  0  0  0
  -36.7250   36.8600   12.0080 O   0  0  0  0  0  0  0  0  0  0  0  0
  -38.0990   37.0990   12.2960 C   0  0  2  0  0  3  0  0  0  0  0  0
  -38.6960   35.9750   13.1500 C   0  0  0  0  0  2  0  0  0  0  0  0
  -40.1840   36.1300   13.2460 C   0  0  0  0  0  0  0  0  0  0  0  0
  -40.9350   36.2820   11.9430 C   0  0  1  0  0  0  0  0  0  0  0  0
  -40.7750   36.0840   14.4450 C   0  0  0  0  0  3  0  0  0  0  0  0
  -42.3900   36.7770   12.2140 C   0  0  2  0  0  3  0  0  0  0  0  0
  -40.2420   37.3470   11.0540 C   0  0  0  0  0  2  0  0  0  0  0  0
  -40.9210   34.9140   11.2380 C   0  0  0  0  0  1  0  0  0  0  0  0
  -43.0320   35.9570   13.3590 C   0  0  2  0  0  3  0  0  0  0  0  0
  -43.2420   36.7590   10.9280 C   0  0  0  0  0  2  0  0  0  0  0  0
  -44.4760   36.4200   13.5360 C   0  0  1  0  0  3  0  0  0  0  0  0
  -42.2440   36.1980   14.6580 C   0  0  0  0  0  2  0  0  0  0  0  0
  -45.3120   36.2130   12.2380 C   0  0  1  0  0  0  0  0  0  0  0  0
  -45.3200   35.7360   14.6200 C   0  0  0  0  0  2  0  0  0  0  0  0
  -46.7200   36.6370   12.7340 C   0  0  2  0  0  3  0  0  0  0  0  0
  -44.7140   37.1350   11.1690 C   0  0  0  0  0  2  0  0  0  0  0  0
  -45.3020   34.7590   11.7560 C   0  0  0  0  0  1  0  0  0  0  0  0
  -46.7710   36.1060   14.2180 C   0  0  1  0  0  3  0  0  0  0  0  0
  -47.9390   36.0180   12.0160 C   0  0  1  0  0  3  0  0  0  0  0  0
  -47.6230   34.9060   14.1190 N   0  0  2  0  0  0  0  0  0  0  0  0
  -48.6860   35.2330   13.1290 C   0  0  2  0  0  3  0  0  0  0  0  0
  -48.2030   34.3990   15.3710 C   0  0  0  0  0  2  0  0  0  0  0  0
  -49.3260   33.9100   12.6900 C   0  0  0  0  0  2  0  0  0  0  0  0
  -49.9500   33.2410   13.9260 C   0  0  0  0  0  2  0  0  0  0  0  0
  -48.8920   33.0510   15.0320 C   0  0  2  0  0  3  0  0  0  0  0  0
  -49.5320   32.4680   16.2930 C   0  0  0  0  0  1  0  0  0  0  0  0
  -48.8380   37.0820   11.3900 C   0  0  0  0  0  1  0  0  0  0  0  0
  -38.7390   37.1180   10.9020 C   0  0  0  0  0  2  0  0  0  0  0  0
  -34.7140   39.2950   12.3230 O   0  0  0  0  0  0  0  0  0  0  0  0
  -34.8400   40.0520   11.1490 C   0  0  2  0  0  3  0  0  0  0  0  0
  -36.2250   40.3630   11.0770 O   0  0  0  0  0  0  0  0  0  0  0  0
  -36.6350   41.0690    9.9370 C   0  0  2  0  0  3  0  0  0  0  0  0
  -36.2210   40.3700    8.6200 C   0  0  1  0  0  3  0  0  0  0  0  0
  -36.1370   42.5090    9.9690 C   0  0  0  0  0  1  0  0  0  0  0  0
  -34.8030   39.7650    8.6600 C   0  0  2  0  0  3  0  0  0  0  0  0
  -34.4940   39.0780   10.0040 C   0  0  1  0  0  3  0  0  0  0  0  0
  -37.1580   39.3250    8.4670 O   0  0  0  0  0  0  0  0  0  0  0  0
  -37.1820   38.7520    9.2580 H   0  0  0  0  0  0  0  0  0  0  0  0
  -33.8520   40.8140    8.5760 O   0  0  0  0  0  0  0  0  0  0  0  0
  -33.2410   40.6770    7.8290 H   0  0  0  0  0  0  0  0  0  0  0  0
  -33.1410   38.7150   10.0490 O   0  0  0  0  0  0  0  0  0  0  0  0
  -32.5960   39.4690   10.3690 H   0  0  0  0  0  0  0  0  0  0  0  0
  -36.1240   36.4700   16.4990 C   0  0  0  0  0  2  0  0  0  0  0  0
  -37.5210   36.3570   16.6240 O   0  0  0  0  0  0  0  0  0  0  0  0
  -37.7800   36.3460   17.5740 H   0  0  0  0  0  0  0  0  0  0  0  0
  -36.9810   40.6760   13.9780 O   0  0  0  0  0  0  0  0  0  0  0  0
  -36.9190   40.9670   13.0440 H   0  0  0  0  0  0  0  0  0  0  0  0
  -36.6800   39.3480   16.5800 O   0  0  0  0  0  0  0  0  0  0  0  0
  -37.9410   39.5100   17.1810 C   0  0  2  0  0  3  0  0  0  0  0  0
  -38.8940   39.2320   16.1740 O   0  0  0  0  0  0  0  0  0  0  0  0
  -40.2470   39.4160   16.5090 C   0  0  2  0  0  3  0  0  0  0  0  0
  -40.5030   40.8570   17.0010 C   0  0  1  0  0  3  0  0  0  0  0  0
  -40.7200   38.3720   17.5080 C   0  0  0  0  0  1  0  0  0  0  0  0
  -39.4360   41.3690   17.9920 C   0  0  2  0  0  3  0  0  0  0  0  0
  -38.0010   41.0060   17.5560 C   0  0  1  0  0  3  0  0  0  0  0  0
  -40.4250   41.6280   15.8220 O   0  0  0  0  0  0  0  0  0  0  0  0
  -41.0850   42.3480   15.8160 H   0  0  0  0  0  0  0  0  0  0  0  0
  -39.6200   40.6950   19.2260 O   0  0  0  0  0  0  0  0  0  0  0  0
  -39.9770   41.2980   19.9050 H   0  0  0  0  0  0  0  0  0  0  0  0
  -37.1020   41.2790   18.5940 O   0  0  0  0  0  0  0  0  0  0  0  0
  -36.1910   41.3890   18.2370 H   0  0  0  0  0  0  0  0  0  0  0  0
  1  5  1  0  0  0  0
  2  7  1  6  0  0  0
  2  1  1  0  0  0  0
  3 36  1  1  0  0  0
  3  2  1  0  0  0  0
  3  4  1  0  0  0  0
  4 53  1  6  0  0  0
  4  6  1  0  0  0  0
  5 50  1  1  0  0  0
  6  5  1  0  0  0  0
  6 55  1  1  0  0  0
  8  7  1  6  0  0  0
  8  9  1  0  0  0  0
  9 10  1  0  0  0  0
 10 12  2  0  0  0  0
 11 15  1  6  0  0  0
 11 13  1  0  0  0  0
 11 10  1  0  0  0  0
 12 19  1  0  0  0  0
 13 17  1  6  0  0  0
 13 16  1  0  0  0  0
 14 11  1  0  0  0  0
 16 18  1  0  0  0  0
 16 19  1  1  0  0  0
 17 23  1  0  0  0  0
 18 21  1  1  0  0  0
 20 24  1  6  0  0  0
 20 22  1  0  0  0  0
 20 18  1  0  0  0  0
 22 25  1  0  0  0  0
 23 20  1  0  0  0  0
 25 21  1  0  0  0  0
 26 22  1  0  0  0  0
 26 28  1  0  0  0  0
 27 25  1  0  0  0  0
 27 29  1  0  0  0  0
 28 27  1  0  0  0  0
 30 28  1  0  0  0  0
 30 31  1  0  0  0  0
 31 32  1  0  0  0  0
 32 29  1  0  0  0  0
 32 33  1  0  0  0  0
 34 26  1  0  0  0  0
 35 14  1  0  0  0  0
 35  8  1  0  0  0  0
 37 36  1  0  0  0  0
 38 37  1  0  0  0  0
 39 41  1  0  0  0  0
 39 38  1  0  0  0  0
 40 42  1  0  0  0  0
 40 39  1  0  0  0  0
 42 43  1  0  0  0  0
 43 48  1  0  0  0  0
 43 37  1  0  0  0  0
 44 40  1  0  0  0  0
 44 45  1  0  0  0  0
 46 42  1  0  0  0  0
 47 46  1  0  0  0  0
 48 49  1  0  0  0  0
 50 51  1  0  0  0  0
 51 52  1  0  0  0  0
 54 53  1  0  0  0  0
 55 56  1  0  0  0  0
 56 62  1  0  0  0  0
 57 58  1  0  0  0  0
 57 56  1  0  0  0  0
 58 59  1  0  0  0  0
 58 60  1  0  0  0  0
 59 61  1  0  0  0  0
 61 65  1  0  0  0  0
 62 61  1  0  0  0  0
 62 67  1  0  0  0  0
 63 59  1  0  0  0  0
 64 63  1  0  0  0  0
 65 66  1  0  0  0  0
 68 67  1  0  0  0  0
M  END
>  <MODEL>
12

>  <REMARK>
 VINA RESULT:    -8.225     17.927     23.215
 INTER + INTRA:         -16.398
 INTER:                 -13.154
 INTRA:                  -3.245
 UNBOUND:                -2.884
  15 active torsions:
  status: ('A' for Active; 'I' for Inactive)
    1  A    between atoms: O1_1  and  C26_41 
    2  A    between atoms: O1_1  and  C28_43 
    3  A    between atoms: O3_3  and  C29_44 
    4  A    between atoms: O3_3  and  C34_49 
    5  A    between atoms: O4_4  and  C30_45 
    6  A    between atoms: O5_5  and  C32_47 
    7  A    between atoms: O5_5  and  C36_51 
    8  A    between atoms: O7_7  and  C33_48 
    9  A    between atoms: O9_9  and  C35_50 
   10  A    between atoms: O10_10  and  C37_52 
   11  A    between atoms: O11_11  and  C39_54 
   12  A    between atoms: O12_12  and  C40_55 
   13  A    between atoms: O13_13  and  C41_56 
   14  A    between atoms: O14_14  and  C43_58 
   15  A    between atoms: C31_46  and  C33_48 

>  <TORSDO>
F 15

$$$$
./ChaconinaA.pdbqt
 OpenBabel10282519553D

 68 76  0  0  1  0  0  0  0  0999 V2000
  -41.6940   26.1500    4.1360 O   0  0  0  0  0  0  0  0  0  0  0  0
  -41.5170   27.4070    3.5150 C   0  0  2  0  0  3  0  0  0  0  0  0
  -42.3030   28.6000    4.1210 C   0  0  1  0  0  3  0  0  0  0  0  0
  -42.8970   28.3890    5.5240 C   0  0  2  0  0  3  0  0  0  0  0  0
  -41.8340   26.1490    5.5430 C   0  0  1  0  0  3  0  0  0  0  0  0
  -43.1360   26.9130    5.8410 C   0  0  1  0  0  3  0  0  0  0  0  0
  -42.0470   27.2930    2.2190 O   0  0  0  0  0  0  0  0  0  0  0  0
  -43.3070   27.9120    1.9800 C   0  0  2  0  0  3  0  0  0  0  0  0
  -44.4670   26.9680    2.3180 C   0  0  0  0  0  2  0  0  0  0  0  0
  -45.7650   27.5530    1.8460 C   0  0  0  0  0  0  0  0  0  0  0  0
  -45.8250   27.9940    0.4020 C   0  0  1  0  0  0  0  0  0  0  0  0
  -46.8030   27.6160    2.6880 C   0  0  0  0  0  3  0  0  0  0  0  0
  -47.0850   28.8820    0.1620 C   0  0  2  0  0  3  0  0  0  0  0  0
  -44.5810   28.8540    0.0600 C   0  0  0  0  0  2  0  0  0  0  0  0
  -45.8470   26.7260   -0.4690 C   0  0  0  0  0  1  0  0  0  0  0  0
  -48.3350   28.2250    0.7980 C   0  0  2  0  0  3  0  0  0  0  0  0
  -47.2820   29.1910   -1.3370 C   0  0  0  0  0  2  0  0  0  0  0  0
  -49.5530   29.0860    0.4710 C   0  0  1  0  0  3  0  0  0  0  0  0
  -48.1440   28.1480    2.3220 C   0  0  0  0  0  2  0  0  0  0  0  0
  -49.7770   29.2100   -1.0660 C   0  0  1  0  0  0  0  0  0  0  0  0
  -50.9190   28.6210    0.9970 C   0  0  0  0  0  2  0  0  0  0  0  0
  -51.1100   30.0030   -1.0960 C   0  0  2  0  0  3  0  0  0  0  0  0
  -48.5740   29.9730   -1.6320 C   0  0  0  0  0  2  0  0  0  0  0  0
  -49.9190   27.8480   -1.7520 C   0  0  0  0  0  1  0  0  0  0  0  0
  -51.9190   29.4280    0.1290 C   0  0  1  0  0  3  0  0  0  0  0  0
  -52.0150   29.8150   -2.3330 C   0  0  1  0  0  3  0  0  0  0  0  0
  -52.9120   28.5420   -0.5070 N   0  0  2  0  0  0  0  0  0  0  0  0
  -53.3340   29.2250   -1.7610 C   0  0  2  0  0  3  0  0  0  0  0  0
  -54.0760   28.1590    0.3050 C   0  0  0  0  0  2  0  0  0  0  0  0
  -54.0280   28.1790   -2.6420 C   0  0  0  0  0  2  0  0  0  0  0  0
  -55.2630   27.6560   -1.8900 C   0  0  0  0  0  2  0  0  0  0  0  0
  -54.8620   27.0980   -0.5100 C   0  0  2  0  0  3  0  0  0  0  0  0
  -56.1000   26.6600    0.2740 C   0  0  0  0  0  1  0  0  0  0  0  0
  -52.2700   31.1320   -3.0630 C   0  0  0  0  0  1  0  0  0  0  0  0
  -43.2640   28.1990    0.4740 C   0  0  0  0  0  2  0  0  0  0  0  0
  -41.2940   29.5920    4.2730 O   0  0  0  0  0  0  0  0  0  0  0  0
  -41.6140   30.8260    3.6890 C   0  0  2  0  0  3  0  0  0  0  0  0
  -41.4530   30.6100    2.2940 O   0  0  0  0  0  0  0  0  0  0  0  0
  -41.6490   31.7310    1.4750 C   0  0  2  0  0  3  0  0  0  0  0  0
  -40.7690   32.9350    1.8870 C   0  0  1  0  0  3  0  0  0  0  0  0
  -43.1210   32.1260    1.4200 C   0  0  0  0  0  1  0  0  0  0  0  0
  -40.6630   33.1280    3.4140 C   0  0  2  0  0  3  0  0  0  0  0  0
  -40.5100   31.7940    4.1670 C   0  0  1  0  0  3  0  0  0  0  0  0
  -39.4890   32.6250    1.3770 O   0  0  0  0  0  0  0  0  0  0  0  0
  -39.0310   31.9740    1.9420 H   0  0  0  0  0  0  0  0  0  0  0  0
  -41.8840   33.6660    3.8960 O   0  0  0  0  0  0  0  0  0  0  0  0
  -42.3290   33.0430    4.4990 H   0  0  0  0  0  0  0  0  0  0  0  0
  -40.6060   32.0170    5.5480 O   0  0  0  0  0  0  0  0  0  0  0  0
  -40.8620   32.9500    5.7250 H   0  0  0  0  0  0  0  0  0  0  0  0
  -41.9060   24.6620    5.9250 C   0  0  0  0  0  2  0  0  0  0  0  0
  -43.1140   24.0960    5.4750 O   0  0  0  0  0  0  0  0  0  0  0  0
  -43.0210   23.1190    5.3880 H   0  0  0  0  0  0  0  0  0  0  0  0
  -44.1190   29.1040    5.5260 O   0  0  0  0  0  0  0  0  0  0  0  0
  -44.3920   29.3090    6.4440 H   0  0  0  0  0  0  0  0  0  0  0  0
  -43.6200   26.7060    7.1450 O   0  0  0  0  0  0  0  0  0  0  0  0
  -44.8940   26.1310    7.2980 C   0  0  2  0  0  3  0  0  0  0  0  0
  -45.4780   26.1250    6.0100 O   0  0  0  0  0  0  0  0  0  0  0  0
  -46.8070   25.6760    5.9160 C   0  0  2  0  0  3  0  0  0  0  0  0
  -47.7350   26.4940    6.8400 C   0  0  1  0  0  3  0  0  0  0  0  0
  -46.9080   24.1800    6.1740 C   0  0  0  0  0  1  0  0  0  0  0  0
  -47.1490   26.7320    8.2480 C   0  0  2  0  0  3  0  0  0  0  0  0
  -45.6550   27.1160    8.2110 C   0  0  1  0  0  3  0  0  0  0  0  0
  -47.8390   27.7390    6.1840 O   0  0  0  0  0  0  0  0  0  0  0  0
  -47.4690   28.4650    6.7230 H   0  0  0  0  0  0  0  0  0  0  0  0
  -47.1890   25.5030    8.9550 O   0  0  0  0  0  0  0  0  0  0  0  0
  -48.0950   25.2980    9.2510 H   0  0  0  0  0  0  0  0  0  0  0  0
  -45.1210   27.0840    9.5050 O   0  0  0  0  0  0  0  0  0  0  0  0
  -44.7930   26.1790    9.7160 H   0  0  0  0  0  0  0  0  0  0  0  0
  1  5  1  0  0  0  0
  2  7  1  6  0  0  0
  2  3  1  0  0  0  0
  2  1  1  0  0  0  0
  3 36  1  1  0  0  0
  3  4  1  0  0  0  0
  4 53  1  6  0  0  0
  4  6  1  0  0  0  0
  5  6  1  0  0  0  0
  5 50  1  6  0  0  0
  6 55  1  1  0  0  0
  8  7  1  6  0  0  0
  8  9  1  0  0  0  0
 10  9  1  0  0  0  0
 10 12  2  0  0  0  0
 11 15  1  6  0  0  0
 11 10  1  0  0  0  0
 13 17  1  6  0  0  0
 13 11  1  0  0  0  0
 13 16  1  0  0  0  0
 14 11  1  0  0  0  0
 14 35  1  0  0  0  0
 16 19  1  1  0  0  0
 18 16  1  0  0  0  0
 18 21  1  1  0  0  0
 19 12  1  0  0  0  0
 20 24  1  6  0  0  0
 20 18  1  0  0  0  0
 22 20  1  0  0  0  0
 22 25  1  0  0  0  0
 23 17  1  0  0  0  0
 23 20  1  0  0  0  0
 25 21  1  0  0  0  0
 26 28  1  0  0  0  0
 26 22  1  0  0  0  0
 27 25  1  0  0  0  0
 27 29  1  0  0  0  0
 28 27  1  0  0  0  0
 30 31  1  0  0  0  0
 30 28  1  0  0  0  0
 31 32  1  0  0  0  0
 32 33  1  0  0  0  0
 32 29  1  0  0  0  0
 34 26  1  0  0  0  0
 35  8  1  0  0  0  0
 37 43  1  0  0  0  0
 37 36  1  0  0  0  0
 38 37  1  0  0  0  0
 39 40  1  0  0  0  0
 39 38  1  0  0  0  0
 40 42  1  0  0  0  0
 41 39  1  0  0  0  0
 42 46  1  0  0  0  0
 42 43  1  0  0  0  0
 43 48  1  0  0  0  0
 44 40  1  0  0  0  0
 44 45  1  0  0  0  0
 46 47  1  0  0  0  0
 48 49  1  0  0  0  0
 51 50  1  0  0  0  0
 52 51  1  0  0  0  0
 53 54  1  0  0  0  0
 55 56  1  0  0  0  0
 56 62  1  0  0  0  0
 57 56  1  0  0  0  0
 58 57  1  0  0  0  0
 58 60  1  0  0  0  0
 58 59  1  0  0  0  0
 59 61  1  0  0  0  0
 61 65  1  0  0  0  0
 62 61  1  0  0  0  0
 62 67  1  0  0  0  0
 63 64  1  0  0  0  0
 63 59  1  0  0  0  0
 65 66  1  0  0  0  0
 67 68  1  0  0  0  0
M  END
>  <MODEL>
13

>  <REMARK>
 VINA RESULT:    -8.197     22.079     26.848
 INTER + INTRA:         -16.352
 INTER:                 -13.128
 INTRA:                  -3.224
 UNBOUND:                -2.884
  15 active torsions:
  status: ('A' for Active; 'I' for Inactive)
    1  A    between atoms: O1_1  and  C26_41 
    2  A    between atoms: O1_1  and  C28_43 
    3  A    between atoms: O3_3  and  C29_44 
    4  A    between atoms: O3_3  and  C34_49 
    5  A    between atoms: O4_4  and  C30_45 
    6  A    between atoms: O5_5  and  C32_47 
    7  A    between atoms: O5_5  and  C36_51 
    8  A    between atoms: O7_7  and  C33_48 
    9  A    between atoms: O9_9  and  C35_50 
   10  A    between atoms: O10_10  and  C37_52 
   11  A    between atoms: O11_11  and  C39_54 
   12  A    between atoms: O12_12  and  C40_55 
   13  A    between atoms: O13_13  and  C41_56 
   14  A    between atoms: O14_14  and  C43_58 
   15  A    between atoms: C31_46  and  C33_48 

>  <TORSDO>
F 15

$$$$
./ChaconinaA.pdbqt
 OpenBabel10282519553D

 68 76  0  0  1  0  0  0  0  0999 V2000
  -43.8040   28.6020    1.7520 O   0  0  0  0  0  0  0  0  0  0  0  0
  -42.9340   29.4960    2.4160 C   0  0  2  0  0  3  0  0  0  0  0  0
  -41.8740   28.8670    3.3580 C   0  0  1  0  0  3  0  0  0  0  0  0
  -41.6320   27.3560    3.2060 C   0  0  2  0  0  3  0  0  0  0  0  0
  -43.2510   27.3720    1.3290 C   0  0  1  0  0  3  0  0  0  0  0  0
  -42.8370   26.6280    2.6090 C   0  0  1  0  0  3  0  0  0  0  0  0
  -43.7300   30.2610    3.2860 O   0  0  0  0  0  0  0  0  0  0  0  0
  -45.0400   29.7730    3.5580 C   0  0  2  0  0  3  0  0  0  0  0  0
  -46.1140   30.7450    3.0570 C   0  0  0  0  0  2  0  0  0  0  0  0
  -47.4650   30.3260    3.5530 C   0  0  0  0  0  0  0  0  0  0  0  0
  -47.5980   30.0890    5.0400 C   0  0  1  0  0  0  0  0  0  0  0  0
  -48.4830   30.2260    2.6900 C   0  0  0  0  0  3  0  0  0  0  0  0
  -48.9290   29.3360    5.3490 C   0  0  2  0  0  3  0  0  0  0  0  0
  -46.4330   29.1940    5.5380 C   0  0  0  0  0  2  0  0  0  0  0  0
  -47.5450   31.4610    5.7340 C   0  0  0  0  0  1  0  0  0  0  0  0
  -50.1070   29.9910    4.5870 C   0  0  2  0  0  3  0  0  0  0  0  0
  -49.1890   29.2470    6.8670 C   0  0  0  0  0  2  0  0  0  0  0  0
  -51.3960   29.2740    4.9790 C   0  0  1  0  0  3  0  0  0  0  0  0
  -49.8700   29.8470    3.0730 C   0  0  0  0  0  2  0  0  0  0  0  0
  -51.6700   29.3750    6.5100 C   0  0  1  0  0  0  0  0  0  0  0  0
  -52.7070   29.7610    4.3470 C   0  0  0  0  0  2  0  0  0  0  0  0
  -53.0600   28.6920    6.5960 C   0  0  2  0  0  3  0  0  0  0  0  0
  -50.5450   28.6090    7.2160 C   0  0  0  0  0  2  0  0  0  0  0  0
  -51.7240   30.8230    7.0040 C   0  0  0  0  0  1  0  0  0  0  0  0
  -53.7900   29.1550    5.2770 C   0  0  1  0  0  3  0  0  0  0  0  0
  -53.9810   29.1110    7.7630 C   0  0  1  0  0  3  0  0  0  0  0  0
  -54.7280   30.1880    5.7530 N   0  0  2  0  0  0  0  0  0  0  0  0
  -55.2340   29.7130    7.0700 C   0  0  2  0  0  3  0  0  0  0  0  0
  -55.8370   30.5420    4.8550 C   0  0  0  0  0  2  0  0  0  0  0  0
  -55.8690   30.9170    7.7780 C   0  0  0  0  0  2  0  0  0  0  0  0
  -57.0390   31.4220    6.9190 C   0  0  0  0  0  2  0  0  0  0  0  0
  -56.5590   31.7580    5.4920 C   0  0  2  0  0  3  0  0  0  0  0  0
  -57.7390   32.1760    4.6130 C   0  0  0  0  0  1  0  0  0  0  0  0
  -54.3570   27.9270    8.6520 C   0  0  0  0  0  1  0  0  0  0  0  0
  -45.0600   29.6900    5.0900 C   0  0  0  0  0  2  0  0  0  0  0  0
  -40.6700   29.4960    2.9360 O   0  0  0  0  0  0  0  0  0  0  0  0
  -40.5810   30.8520    3.2850 C   0  0  2  0  0  3  0  0  0  0  0  0
  -40.5190   31.5340    2.0390 O   0  0  0  0  0  0  0  0  0  0  0  0
  -40.3540   32.9240    2.1100 C   0  0  2  0  0  3  0  0  0  0  0  0
  -39.1260   33.3380    2.9550 C   0  0  1  0  0  3  0  0  0  0  0  0
  -41.6190   33.6070    2.6180 C   0  0  0  0  0  1  0  0  0  0  0  0
  -38.9400   32.4920    4.2320 C   0  0  2  0  0  3  0  0  0  0  0  0
  -39.2170   30.9960    3.9920 C   0  0  1  0  0  3  0  0  0  0  0  0
  -38.0230   33.1210    2.1010 O   0  0  0  0  0  0  0  0  0  0  0  0
  -37.9490   32.1800    1.8500 H   0  0  0  0  0  0  0  0  0  0  0  0
  -39.9140   32.8800    5.1870 O   0  0  0  0  0  0  0  0  0  0  0  0
  -40.7310   33.1890    4.7530 H   0  0  0  0  0  0  0  0  0  0  0  0
  -39.2150   30.3130    5.2170 O   0  0  0  0  0  0  0  0  0  0  0  0
  -40.0740   30.4410    5.6790 H   0  0  0  0  0  0  0  0  0  0  0  0
  -44.3900   26.6760    0.5680 C   0  0  0  0  0  2  0  0  0  0  0  0
  -43.9080   25.5380   -0.1060 O   0  0  0  0  0  0  0  0  0  0  0  0
  -44.1000   24.7250    0.4160 H   0  0  0  0  0  0  0  0  0  0  0  0
  -41.3630   26.8850    4.5140 O   0  0  0  0  0  0  0  0  0  0  0  0
  -40.9640   27.5970    5.0570 H   0  0  0  0  0  0  0  0  0  0  0  0
  -42.6020   25.2560    2.4080 O   0  0  0  0  0  0  0  0  0  0  0  0
  -43.4640   24.3360    3.0300 C   0  0  2  0  0  3  0  0  0  0  0  0
  -43.3320   24.5540    4.4210 O   0  0  0  0  0  0  0  0  0  0  0  0
  -44.0360   23.6830    5.2720 C   0  0  2  0  0  3  0  0  0  0  0  0
  -43.6540   22.2130    4.9970 C   0  0  1  0  0  3  0  0  0  0  0  0
  -45.5360   23.9150    5.1870 C   0  0  0  0  0  1  0  0  0  0  0  0
  -43.5890   21.8630    3.4950 C   0  0  2  0  0  3  0  0  0  0  0  0
  -42.8840   22.9530    2.6620 C   0  0  1  0  0  3  0  0  0  0  0  0
  -42.3550   22.1020    5.5370 O   0  0  0  0  0  0  0  0  0  0  0  0
  -41.8750   21.3330    5.1730 H   0  0  0  0  0  0  0  0  0  0  0  0
  -44.9160   21.8270    2.9940 O   0  0  0  0  0  0  0  0  0  0  0  0
  -45.4450   22.5660    3.3480 H   0  0  0  0  0  0  0  0  0  0  0  0
  -43.0640   22.7040    1.2960 O   0  0  0  0  0  0  0  0  0  0  0  0
  -42.4220   22.0230    0.9870 H   0  0  0  0  0  0  0  0  0  0  0  0
  1  2  1  0  0  0  0
  2  7  1  1  0  0  0
  2  3  1  0  0  0  0
  3 36  1  6  0  0  0
  4  3  1  0  0  0  0
  4 53  1  1  0  0  0
  5 50  1  1  0  0  0
  5  1  1  0  0  0  0
  5  6  1  0  0  0  0
  6 55  1  6  0  0  0
  6  4  1  0  0  0  0
  8  7  1  1  0  0  0
  8 35  1  0  0  0  0
  9 10  1  0  0  0  0
  9  8  1  0  0  0  0
 10 11  1  0  0  0  0
 11 13  1  0  0  0  0
 11 14  1  0  0  0  0
 11 15  1  1  0  0  0
 12 19  1  0  0  0  0
 12 10  2  0  0  0  0
 13 17  1  1  0  0  0
 16 19  1  6  0  0  0
 16 18  1  0  0  0  0
 16 13  1  0  0  0  0
 17 23  1  0  0  0  0
 18 21  1  6  0  0  0
 18 20  1  0  0  0  0
 20 22  1  0  0  0  0
 20 24  1  1  0  0  0
 20 23  1  0  0  0  0
 21 25  1  0  0  0  0
 22 26  1  0  0  0  0
 25 27  1  0  0  0  0
 25 22  1  0  0  0  0
 26 34  1  0  0  0  0
 27 28  1  0  0  0  0
 28 26  1  0  0  0  0
 28 30  1  0  0  0  0
 29 32  1  0  0  0  0
 29 27  1  0  0  0  0
 31 30  1  0  0  0  0
 32 31  1  0  0  0  0
 33 32  1  0  0  0  0
 35 14  1  0  0  0  0
 36 37  1  0  0  0  0
 37 43  1  0  0  0  0
 38 39  1  0  0  0  0
 38 37  1  0  0  0  0
 39 41  1  0  0  0  0
 39 40  1  0  0  0  0
 40 42  1  0  0  0  0
 42 46  1  0  0  0  0
 43 42  1  0  0  0  0
 43 48  1  0  0  0  0
 44 40  1  0  0  0  0
 45 44  1  0  0  0  0
 47 46  1  0  0  0  0
 48 49  1  0  0  0  0
 51 52  1  0  0  0  0
 51 50  1  0  0  0  0
 53 54  1  0  0  0  0
 55 56  1  0  0  0  0
 56 57  1  0  0  0  0
 57 58  1  0  0  0  0
 59 58  1  0  0  0  0
 59 63  1  0  0  0  0
 60 58  1  0  0  0  0
 61 59  1  0  0  0  0
 62 56  1  0  0  0  0
 62 61  1  0  0  0  0
 64 63  1  0  0  0  0
 65 66  1  0  0  0  0
 65 61  1  0  0  0  0
 67 62  1  0  0  0  0
 68 67  1  0  0  0  0
M  END
>  <MODEL>
14

>  <REMARK>
 VINA RESULT:    -8.186     22.611     26.746
 INTER + INTRA:         -16.334
 INTER:                 -14.093
 INTRA:                  -2.241
 UNBOUND:                -2.884
  15 active torsions:
  status: ('A' for Active; 'I' for Inactive)
    1  A    between atoms: O1_1  and  C26_41 
    2  A    between atoms: O1_1  and  C28_43 
    3  A    between atoms: O3_3  and  C29_44 
    4  A    between atoms: O3_3  and  C34_49 
    5  A    between atoms: O4_4  and  C30_45 
    6  A    between atoms: O5_5  and  C32_47 
    7  A    between atoms: O5_5  and  C36_51 
    8  A    between atoms: O7_7  and  C33_48 
    9  A    between atoms: O9_9  and  C35_50 
   10  A    between atoms: O10_10  and  C37_52 
   11  A    between atoms: O11_11  and  C39_54 
   12  A    between atoms: O12_12  and  C40_55 
   13  A    between atoms: O13_13  and  C41_56 
   14  A    between atoms: O14_14  and  C43_58 
   15  A    between atoms: C31_46  and  C33_48 

>  <TORSDO>
F 15

$$$$
./ChaconinaA.pdbqt
 OpenBabel10282519553D

 68 76  0  0  1  0  0  0  0  0999 V2000
  -15.7240   36.5110  -20.7790 O   0  0  0  0  0  0  0  0  0  0  0  0
  -16.6230   35.4240  -20.8700 C   0  0  2  0  0  3  0  0  0  0  0  0
  -17.1330   34.8290  -19.5300 C   0  0  1  0  0  3  0  0  0  0  0  0
  -16.9110   35.6830  -18.2710 C   0  0  2  0  0  3  0  0  0  0  0  0
  -15.9480   37.4370  -19.7340 C   0  0  1  0  0  3  0  0  0  0  0  0
  -15.7440   36.6570  -18.4240 C   0  0  1  0  0  3  0  0  0  0  0  0
  -15.9100   34.3610  -21.4490 O   0  0  0  0  0  0  0  0  0  0  0  0
  -15.5680   33.2730  -20.5950 C   0  0  2  0  0  3  0  0  0  0  0  0
  -14.1680   33.4500  -19.9970 C   0  0  0  0  0  2  0  0  0  0  0  0
  -13.7420   32.1970  -19.2930 C   0  0  0  0  0  0  0  0  0  0  0  0
  -13.8380   30.9110  -20.0810 C   0  0  1  0  0  0  0  0  0  0  0  0
  -13.2640   32.2720  -18.0450 C   0  0  0  0  0  3  0  0  0  0  0  0
  -13.7030   29.6830  -19.1270 C   0  0  2  0  0  3  0  0  0  0  0  0
  -15.2260   30.8130  -20.7660 C   0  0  0  0  0  2  0  0  0  0  0  0
  -12.7250   30.9330  -21.1420 C   0  0  0  0  0  1  0  0  0  0  0  0
  -12.5100   29.8820  -18.1600 C   0  0  2  0  0  3  0  0  0  0  0  0
  -13.6040   28.3610  -19.9170 C   0  0  0  0  0  2  0  0  0  0  0  0
  -12.3670   28.6280  -17.3020 C   0  0  1  0  0  3  0  0  0  0  0  0
  -12.7870   31.1000  -17.2610 C   0  0  0  0  0  2  0  0  0  0  0  0
  -12.1040   27.3620  -18.1710 C   0  0  1  0  0  0  0  0  0  0  0  0
  -11.2350   28.5940  -16.2660 C   0  0  0  0  0  2  0  0  0  0  0  0
  -11.8800   26.2970  -17.0640 C   0  0  2  0  0  3  0  0  0  0  0  0
  -13.3590   27.1350  -19.0210 C   0  0  0  0  0  2  0  0  0  0  0  0
  -10.8700   27.5080  -19.0660 C   0  0  0  0  0  1  0  0  0  0  0  0
  -11.1090   27.0850  -15.9360 C   0  0  1  0  0  3  0  0  0  0  0  0
  -10.9950   25.0830  -17.4200 C   0  0  1  0  0  3  0  0  0  0  0  0
   -9.7180   26.6170  -16.0880 N   0  0  2  0  0  0  0  0  0  0  0  0
   -9.8020   25.1700  -16.4290 C   0  0  2  0  0  3  0  0  0  0  0  0
   -8.8150   26.8420  -14.9490 C   0  0  0  0  0  2  0  0  0  0  0  0
   -8.4390   24.7530  -16.9950 C   0  0  0  0  0  2  0  0  0  0  0  0
   -7.3750   24.9720  -15.9070 C   0  0  0  0  0  2  0  0  0  0  0  0
   -7.3930   26.4360  -15.4190 C   0  0  2  0  0  3  0  0  0  0  0  0
   -6.3970   26.6330  -14.2750 C   0  0  0  0  0  1  0  0  0  0  0  0
  -11.7460   23.7620  -17.2670 C   0  0  0  0  0  1  0  0  0  0  0  0
  -15.6000   32.0710  -21.5480 C   0  0  0  0  0  2  0  0  0  0  0  0
  -18.5420   34.7850  -19.7260 O   0  0  0  0  0  0  0  0  0  0  0  0
  -18.9890   35.5260  -20.8300 C   0  0  2  0  0  3  0  0  0  0  0  0
  -19.6860   36.6240  -20.2590 O   0  0  0  0  0  0  0  0  0  0  0  0
  -20.3020   37.4970  -21.1660 C   0  0  2  0  0  3  0  0  0  0  0  0
  -21.2560   36.7680  -22.1430 C   0  0  1  0  0  3  0  0  0  0  0  0
  -19.2710   38.3230  -21.9270 C   0  0  0  0  0  1  0  0  0  0  0  0
  -20.7070   35.4180  -22.6510 C   0  0  2  0  0  3  0  0  0  0  0  0
  -20.0100   34.6110  -21.5390 C   0  0  1  0  0  3  0  0  0  0  0  0
  -22.4220   36.5290  -21.3830 O   0  0  0  0  0  0  0  0  0  0  0  0
  -22.3690   36.9610  -20.5090 H   0  0  0  0  0  0  0  0  0  0  0  0
  -19.6830   35.6650  -23.6000 O   0  0  0  0  0  0  0  0  0  0  0  0
  -19.4790   36.6160  -23.6590 H   0  0  0  0  0  0  0  0  0  0  0  0
  -19.3750   33.4910  -22.0960 O   0  0  0  0  0  0  0  0  0  0  0  0
  -18.7450   33.7710  -22.7980 H   0  0  0  0  0  0  0  0  0  0  0  0
  -14.8940   38.5330  -19.9540 C   0  0  0  0  0  2  0  0  0  0  0  0
  -15.1750   39.6550  -19.1510 O   0  0  0  0  0  0  0  0  0  0  0  0
  -15.9000   40.1890  -19.5510 H   0  0  0  0  0  0  0  0  0  0  0  0
  -16.6550   34.7570  -17.2300 O   0  0  0  0  0  0  0  0  0  0  0  0
  -16.6310   35.2160  -16.3650 H   0  0  0  0  0  0  0  0  0  0  0  0
  -15.5730   37.4860  -17.3000 O   0  0  0  0  0  0  0  0  0  0  0  0
  -14.4130   37.3220  -16.5240 C   0  0  2  0  0  3  0  0  0  0  0  0
  -14.2890   35.9330  -16.2910 O   0  0  0  0  0  0  0  0  0  0  0  0
  -13.2420   35.5180  -15.4500 C   0  0  2  0  0  3  0  0  0  0  0  0
  -13.3310   36.2110  -14.0730 C   0  0  1  0  0  3  0  0  0  0  0  0
  -11.8860   35.7190  -16.1100 C   0  0  0  0  0  1  0  0  0  0  0  0
  -13.6350   37.7220  -14.1610 C   0  0  2  0  0  3  0  0  0  0  0  0
  -14.7300   38.0470  -15.1980 C   0  0  1  0  0  3  0  0  0  0  0  0
  -14.4250   35.5720  -13.4520 O   0  0  0  0  0  0  0  0  0  0  0  0
  -14.3000   34.6040  -13.4050 H   0  0  0  0  0  0  0  0  0  0  0  0
  -12.4740   38.3770  -14.6440 O   0  0  0  0  0  0  0  0  0  0  0  0
  -12.4390   38.3550  -15.6190 H   0  0  0  0  0  0  0  0  0  0  0  0
  -14.7950   39.4290  -15.4080 O   0  0  0  0  0  0  0  0  0  0  0  0
  -15.4110   39.6330  -16.1500 H   0  0  0  0  0  0  0  0  0  0  0  0
  1  5  1  0  0  0  0
  2  7  1  1  0  0  0
  2  1  1  0  0  0  0
  2  3  1  0  0  0  0
  3 36  1  6  0  0  0
  3  4  1  0  0  0  0
  4 53  1  1  0  0  0
  5 50  1  6  0  0  0
  5  6  1  0  0  0  0
  6  4  1  0  0  0  0
  6 55  1  1  0  0  0
  8  7  1  6  0  0  0
  8  9  1  0  0  0  0
  9 10  1  0  0  0  0
 10 12  2  0  0  0  0
 11 15  1  6  0  0  0
 11 10  1  0  0  0  0
 11 13  1  0  0  0  0
 12 19  1  0  0  0  0
 13 17  1  6  0  0  0
 13 16  1  0  0  0  0
 14 11  1  0  0  0  0
 16 18  1  0  0  0  0
 16 19  1  1  0  0  0
 17 23  1  0  0  0  0
 18 21  1  1  0  0  0
 20 24  1  6  0  0  0
 20 18  1  0  0  0  0
 20 22  1  0  0  0  0
 21 25  1  0  0  0  0
 22 25  1  0  0  0  0
 23 20  1  0  0  0  0
 26 34  1  0  0  0  0
 26 22  1  0  0  0  0
 26 28  1  0  0  0  0
 27 25  1  0  0  0  0
 27 29  1  0  0  0  0
 28 27  1  0  0  0  0
 30 28  1  0  0  0  0
 30 31  1  0  0  0  0
 31 32  1  0  0  0  0
 32 29  1  0  0  0  0
 32 33  1  0  0  0  0
 35 14  1  0  0  0  0
 35  8  1  0  0  0  0
 37 38  1  0  0  0  0
 37 36  1  0  0  0  0
 39 38  1  0  0  0  0
 40 44  1  0  0  0  0
 40 39  1  0  0  0  0
 41 39  1  0  0  0  0
 42 40  1  0  0  0  0
 42 43  1  0  0  0  0
 43 37  1  0  0  0  0
 44 45  1  0  0  0  0
 46 42  1  0  0  0  0
 47 46  1  0  0  0  0
 48 43  1  0  0  0  0
 49 48  1  0  0  0  0
 50 51  1  0  0  0  0
 52 51  1  0  0  0  0
 53 54  1  0  0  0  0
 55 56  1  0  0  0  0
 56 57  1  0  0  0  0
 56 62  1  0  0  0  0
 57 58  1  0  0  0  0
 58 59  1  0  0  0  0
 59 63  1  0  0  0  0
 60 58  1  0  0  0  0
 61 59  1  0  0  0  0
 62 61  1  0  0  0  0
 63 64  1  0  0  0  0
 65 61  1  0  0  0  0
 66 65  1  0  0  0  0
 67 62  1  0  0  0  0
 68 67  1  0  0  0  0
M  END
>  <MODEL>
15

>  <REMARK>
 VINA RESULT:    -8.099     24.264     28.728
 INTER + INTRA:         -16.191
 INTER:                 -13.438
 INTRA:                  -2.753
 UNBOUND:                -2.884
  15 active torsions:
  status: ('A' for Active; 'I' for Inactive)
    1  A    between atoms: O1_1  and  C26_41 
    2  A    between atoms: O1_1  and  C28_43 
    3  A    between atoms: O3_3  and  C29_44 
    4  A    between atoms: O3_3  and  C34_49 
    5  A    between atoms: O4_4  and  C30_45 
    6  A    between atoms: O5_5  and  C32_47 
    7  A    between atoms: O5_5  and  C36_51 
    8  A    between atoms: O7_7  and  C33_48 
    9  A    between atoms: O9_9  and  C35_50 
   10  A    between atoms: O10_10  and  C37_52 
   11  A    between atoms: O11_11  and  C39_54 
   12  A    between atoms: O12_12  and  C40_55 
   13  A    between atoms: O13_13  and  C41_56 
   14  A    between atoms: O14_14  and  C43_58 
   15  A    between atoms: C31_46  and  C33_48 

>  <TORSDO>
F 15

$$$$
./ChaconinaA.pdbqt
 OpenBabel10282519553D

 68 76  0  0  1  0  0  0  0  0999 V2000
  -45.0270   30.2350    1.2960 O   0  0  0  0  0  0  0  0  0  0  0  0
  -44.4300   30.0050    2.5560 C   0  0  2  0  0  3  0  0  0  0  0  0
  -43.4200   28.8300    2.6450 C   0  0  1  0  0  3  0  0  0  0  0  0
  -42.8970   28.2720    1.3100 C   0  0  2  0  0  3  0  0  0  0  0  0
  -44.2110   30.0310    0.1590 C   0  0  1  0  0  3  0  0  0  0  0  0
  -43.8580   28.5340    0.1510 C   0  0  1  0  0  3  0  0  0  0  0  0
  -45.4630   29.6130    3.4240 O   0  0  0  0  0  0  0  0  0  0  0  0
  -46.0120   30.6180    4.2700 C   0  0  2  0  0  3  0  0  0  0  0  0
  -45.7930   30.2860    5.7510 C   0  0  0  0  0  2  0  0  0  0  0  0
  -46.5720   31.2320    6.6150 C   0  0  0  0  0  0  0  0  0  0  0  0
  -48.0430   31.3810    6.3020 C   0  0  1  0  0  0  0  0  0  0  0  0
  -45.9590   31.8530    7.6290 C   0  0  0  0  0  3  0  0  0  0  0  0
  -48.6260   32.6290    7.0350 C   0  0  2  0  0  3  0  0  0  0  0  0
  -48.2400   31.6050    4.7800 C   0  0  0  0  0  2  0  0  0  0  0  0
  -48.7440   30.0840    6.7410 C   0  0  0  0  0  1  0  0  0  0  0  0
  -48.1680   32.6460    8.5140 C   0  0  2  0  0  3  0  0  0  0  0  0
  -50.1600   32.7020    6.8950 C   0  0  0  0  0  2  0  0  0  0  0  0
  -48.8230   33.8360    9.2100 C   0  0  1  0  0  3  0  0  0  0  0  0
  -46.6370   32.7890    8.5670 C   0  0  0  0  0  2  0  0  0  0  0  0
  -50.3780   33.7470    9.1660 C   0  0  1  0  0  0  0  0  0  0  0  0
  -48.5190   34.0520   10.6990 C   0  0  0  0  0  2  0  0  0  0  0  0
  -50.7600   34.9780   10.0300 C   0  0  2  0  0  3  0  0  0  0  0  0
  -50.7900   33.8560    7.6930 C   0  0  0  0  0  2  0  0  0  0  0  0
  -50.9110   32.4460    9.7750 C   0  0  0  0  0  1  0  0  0  0  0  0
  -49.6530   35.0060   11.1540 C   0  0  1  0  0  3  0  0  0  0  0  0
  -52.1160   34.9300   10.7680 C   0  0  1  0  0  3  0  0  0  0  0  0
  -50.3570   34.4770   12.3370 N   0  0  2  0  0  0  0  0  0  0  0  0
  -51.7410   35.0220   12.2730 C   0  0  2  0  0  3  0  0  0  0  0  0
  -49.7430   34.7410   13.6470 C   0  0  0  0  0  2  0  0  0  0  0  0
  -52.6070   34.1850   13.2230 C   0  0  0  0  0  2  0  0  0  0  0  0
  -52.0500   34.3390   14.6480 C   0  0  0  0  0  2  0  0  0  0  0  0
  -50.5610   33.9390   14.6940 C   0  0  2  0  0  3  0  0  0  0  0  0
  -49.9830   34.1770   16.0900 C   0  0  0  0  0  1  0  0  0  0  0  0
  -53.0340   36.0780   10.3550 C   0  0  0  0  0  1  0  0  0  0  0  0
  -47.5050   30.5770    3.9220 C   0  0  0  0  0  2  0  0  0  0  0  0
  -42.2980   29.4320    3.2800 O   0  0  0  0  0  0  0  0  0  0  0  0
  -42.2480   30.8270    3.1510 C   0  0  2  0  0  3  0  0  0  0  0  0
  -41.3420   31.0510    2.0790 O   0  0  0  0  0  0  0  0  0  0  0  0
  -41.0580   32.3930    1.7870 C   0  0  2  0  0  3  0  0  0  0  0  0
  -40.5580   33.1800    3.0220 C   0  0  1  0  0  3  0  0  0  0  0  0
  -42.2570   33.0860    1.1490 C   0  0  0  0  0  1  0  0  0  0  0  0
  -41.3140   32.8360    4.3220 C   0  0  2  0  0  3  0  0  0  0  0  0
  -41.5970   31.3280    4.4570 C   0  0  1  0  0  3  0  0  0  0  0  0
  -39.2080   32.7910    3.1630 O   0  0  0  0  0  0  0  0  0  0  0  0
  -38.6100   33.5610    3.1010 H   0  0  0  0  0  0  0  0  0  0  0  0
  -42.6000   33.4320    4.2780 O   0  0  0  0  0  0  0  0  0  0  0  0
  -43.2850   32.8160    4.5980 H   0  0  0  0  0  0  0  0  0  0  0  0
  -42.4400   31.1010    5.5540 O   0  0  0  0  0  0  0  0  0  0  0  0
  -42.7800   31.9560    5.9040 H   0  0  0  0  0  0  0  0  0  0  0  0
  -45.0910   30.4500   -1.0300 C   0  0  0  0  0  2  0  0  0  0  0  0
  -44.3110   30.5950   -2.1920 O   0  0  0  0  0  0  0  0  0  0  0  0
  -43.9390   31.5060   -2.2430 H   0  0  0  0  0  0  0  0  0  0  0  0
  -42.7370   26.8810    1.5220 O   0  0  0  0  0  0  0  0  0  0  0  0
  -43.6110   26.4370    1.5420 H   0  0  0  0  0  0  0  0  0  0  0  0
  -43.3600   28.0830   -1.0840 O   0  0  0  0  0  0  0  0  0  0  0  0
  -43.9560   26.9520   -1.6690 C   0  0  2  0  0  3  0  0  0  0  0  0
  -43.2910   25.8310   -1.1220 O   0  0  0  0  0  0  0  0  0  0  0  0
  -43.6510   24.5680   -1.6250 C   0  0  2  0  0  3  0  0  0  0  0  0
  -43.4700   24.5110   -3.1580 C   0  0  1  0  0  3  0  0  0  0  0  0
  -45.0570   24.1790   -1.1950 C   0  0  0  0  0  1  0  0  0  0  0  0
  -44.0040   25.7610   -3.8890 C   0  0  2  0  0  3  0  0  0  0  0  0
  -43.6250   27.0740   -3.1720 C   0  0  1  0  0  3  0  0  0  0  0  0
  -42.0700   24.4610   -3.3240 O   0  0  0  0  0  0  0  0  0  0  0  0
  -41.6370   23.9700   -2.5990 H   0  0  0  0  0  0  0  0  0  0  0  0
  -45.4210   25.7230   -3.8480 O   0  0  0  0  0  0  0  0  0  0  0  0
  -45.8060   26.1580   -4.6320 H   0  0  0  0  0  0  0  0  0  0  0  0
  -44.3280   28.1460   -3.7350 O   0  0  0  0  0  0  0  0  0  0  0  0
  -44.4900   28.8420   -3.0560 H   0  0  0  0  0  0  0  0  0  0  0  0
  1  2  1  0  0  0  0
  2  3  1  0  0  0  0
  2  7  1  1  0  0  0
  3 36  1  1  0  0  0
  4 53  1  1  0  0  0
  4  3  1  0  0  0  0
  5 50  1  6  0  0  0
  5  1  1  0  0  0  0
  6 55  1  6  0  0  0
  6  5  1  0  0  0  0
  6  4  1  0  0  0  0
  8  7  1  6  0  0  0
  8  9  1  0  0  0  0
  9 10  1  0  0  0  0
 10 12  2  0  0  0  0
 11 10  1  0  0  0  0
 11 15  1  1  0  0  0
 11 13  1  0  0  0  0
 12 19  1  0  0  0  0
 13 17  1  1  0  0  0
 13 16  1  0  0  0  0
 14 11  1  0  0  0  0
 16 19  1  6  0  0  0
 16 18  1  0  0  0  0
 17 23  1  0  0  0  0
 18 21  1  1  0  0  0
 20 18  1  0  0  0  0
 20 24  1  1  0  0  0
 20 22  1  0  0  0  0
 21 25  1  0  0  0  0
 22 26  1  0  0  0  0
 22 25  1  0  0  0  0
 23 20  1  0  0  0  0
 25 27  1  0  0  0  0
 26 28  1  0  0  0  0
 27 29  1  0  0  0  0
 28 27  1  0  0  0  0
 28 30  1  0  0  0  0
 29 32  1  0  0  0  0
 30 31  1  0  0  0  0
 31 32  1  0  0  0  0
 32 33  1  0  0  0  0
 34 26  1  0  0  0  0
 35  8  1  0  0  0  0
 35 14  1  0  0  0  0
 37 36  1  0  0  0  0
 37 43  1  0  0  0  0
 38 37  1  0  0  0  0
 39 38  1  0  0  0  0
 39 40  1  0  0  0  0
 40 44  1  0  0  0  0
 40 42  1  0  0  0  0
 41 39  1  0  0  0  0
 42 43  1  0  0  0  0
 43 48  1  0  0  0  0
 45 44  1  0  0  0  0
 46 42  1  0  0  0  0
 46 47  1  0  0  0  0
 48 49  1  0  0  0  0
 51 50  1  0  0  0  0
 52 51  1  0  0  0  0
 53 54  1  0  0  0  0
 56 57  1  0  0  0  0
 56 55  1  0  0  0  0
 58 60  1  0  0  0  0
 58 57  1  0  0  0  0
 59 58  1  0  0  0  0
 61 65  1  0  0  0  0
 61 62  1  0  0  0  0
 61 59  1  0  0  0  0
 62 56  1  0  0  0  0
 63 59  1  0  0  0  0
 63 64  1  0  0  0  0
 66 65  1  0  0  0  0
 67 62  1  0  0  0  0
 67 68  1  0  0  0  0
M  END
>  <MODEL>
16

>  <REMARK>
 VINA RESULT:    -8.094     20.866     24.363
 INTER + INTRA:         -16.183
 INTER:                 -13.419
 INTRA:                  -2.764
 UNBOUND:                -2.884
  15 active torsions:
  status: ('A' for Active; 'I' for Inactive)
    1  A    between atoms: O1_1  and  C26_41 
    2  A    between atoms: O1_1  and  C28_43 
    3  A    between atoms: O3_3  and  C29_44 
    4  A    between atoms: O3_3  and  C34_49 
    5  A    between atoms: O4_4  and  C30_45 
    6  A    between atoms: O5_5  and  C32_47 
    7  A    between atoms: O5_5  and  C36_51 
    8  A    between atoms: O7_7  and  C33_48 
    9  A    between atoms: O9_9  and  C35_50 
   10  A    between atoms: O10_10  and  C37_52 
   11  A    between atoms: O11_11  and  C39_54 
   12  A    between atoms: O12_12  and  C40_55 
   13  A    between atoms: O13_13  and  C41_56 
   14  A    between atoms: O14_14  and  C43_58 
   15  A    between atoms: C31_46  and  C33_48 

>  <TORSDO>
F 15

$$$$
./ChaconinaA.pdbqt
 OpenBabel10282519553D

 68 76  0  0  1  0  0  0  0  0999 V2000
  -45.2730   27.9930    3.6220 O   0  0  0  0  0  0  0  0  0  0  0  0
  -44.6790   26.9170    2.9260 C   0  0  2  0  0  3  0  0  0  0  0  0
  -43.6980   27.2840    1.7800 C   0  0  1  0  0  3  0  0  0  0  0  0
  -43.1940   28.7360    1.7480 C   0  0  2  0  0  3  0  0  0  0  0  0
  -44.4660   29.1340    3.8380 C   0  0  1  0  0  3  0  0  0  0  0  0
  -44.1510   29.7030    2.4440 C   0  0  1  0  0  3  0  0  0  0  0  0
  -45.7180   26.2440    2.2620 O   0  0  0  0  0  0  0  0  0  0  0  0
  -46.4990   25.3390    3.0360 C   0  0  2  0  0  3  0  0  0  0  0  0
  -45.8630   25.0800    4.4060 C   0  0  0  0  0  2  0  0  0  0  0  0
  -46.5730   23.9610    5.1050 C   0  0  0  0  0  0  0  0  0  0  0  0
  -46.7370   22.6730    4.3300 C   0  0  1  0  0  0  0  0  0  0  0  0
  -46.9810   24.1260    6.3690 C   0  0  0  0  0  3  0  0  0  0  0  0
  -47.7780   21.7490    5.0350 C   0  0  2  0  0  3  0  0  0  0  0  0
  -47.2780   22.9780    2.9080 C   0  0  0  0  0  2  0  0  0  0  0  0
  -45.3530   22.0070    4.2380 C   0  0  0  0  0  1  0  0  0  0  0  0
  -47.4900   21.6770    6.5550 C   0  0  2  0  0  3  0  0  0  0  0  0
  -47.8290   20.3520    4.3810 C   0  0  0  0  0  2  0  0  0  0  0  0
  -48.4800   20.7030    7.1900 C   0  0  1  0  0  3  0  0  0  0  0  0
  -47.6690   23.0760    7.1690 C   0  0  0  0  0  2  0  0  0  0  0  0
  -48.3500   19.2730    6.5850 C   0  0  1  0  0  0  0  0  0  0  0  0
  -48.3790   20.4640    8.7020 C   0  0  0  0  0  2  0  0  0  0  0  0
  -49.3520   18.4940    7.4780 C   0  0  2  0  0  3  0  0  0  0  0  0
  -48.7620   19.3720    5.1120 C   0  0  0  0  0  2  0  0  0  0  0  0
  -46.9320   18.7080    6.7080 C   0  0  0  0  0  1  0  0  0  0  0  0
  -49.1750   19.1480    8.9020 C   0  0  1  0  0  3  0  0  0  0  0  0
  -49.1020   16.9820    7.6680 C   0  0  1  0  0  3  0  0  0  0  0  0
  -48.3800   18.1470    9.6380 N   0  0  2  0  0  0  0  0  0  0  0  0
  -48.8790   16.8160    9.1960 C   0  0  2  0  0  3  0  0  0  0  0  0
  -48.3740   18.2520   11.1050 C   0  0  0  0  0  2  0  0  0  0  0  0
  -47.8290   15.7750    9.6030 C   0  0  0  0  0  2  0  0  0  0  0  0
  -47.6900   15.8000   11.1340 C   0  0  0  0  0  2  0  0  0  0  0  0
  -47.3390   17.2200   11.6240 C   0  0  2  0  0  3  0  0  0  0  0  0
  -47.2890   17.2650   13.1520 C   0  0  0  0  0  1  0  0  0  0  0  0
  -50.2810   16.1400    7.1860 C   0  0  0  0  0  1  0  0  0  0  0  0
  -46.4850   24.0640    2.1840 C   0  0  0  0  0  2  0  0  0  0  0  0
  -42.5590   26.4840    2.0770 O   0  0  0  0  0  0  0  0  0  0  0  0
  -42.4880   26.0640    3.4130 C   0  0  2  0  0  3  0  0  0  0  0  0
  -41.4180   26.8180    3.9640 O   0  0  0  0  0  0  0  0  0  0  0  0
  -41.0890   26.5310    5.2970 C   0  0  2  0  0  3  0  0  0  0  0  0
  -40.7990   25.0290    5.5310 C   0  0  1  0  0  3  0  0  0  0  0  0
  -42.1650   27.0330    6.2530 C   0  0  0  0  0  1  0  0  0  0  0  0
  -41.7590   24.0890    4.7730 C   0  0  2  0  0  3  0  0  0  0  0  0
  -42.0610   24.5820    3.3450 C   0  0  1  0  0  3  0  0  0  0  0  0
  -39.4910   24.8420    5.0330 O   0  0  0  0  0  0  0  0  0  0  0  0
  -39.0540   25.6980    4.8550 H   0  0  0  0  0  0  0  0  0  0  0  0
  -43.0200   24.0990    5.4220 O   0  0  0  0  0  0  0  0  0  0  0  0
  -43.0640   23.4180    6.1190 H   0  0  0  0  0  0  0  0  0  0  0  0
  -43.0740   23.7960    2.7780 O   0  0  0  0  0  0  0  0  0  0  0  0
  -43.9540   24.0790    3.1160 H   0  0  0  0  0  0  0  0  0  0  0  0
  -45.3380   30.0710    4.6890 C   0  0  0  0  0  2  0  0  0  0  0  0
  -44.5570   31.1020    5.2440 O   0  0  0  0  0  0  0  0  0  0  0  0
  -44.8180   31.2630    6.1800 H   0  0  0  0  0  0  0  0  0  0  0  0
  -43.0680   29.0590    0.3760 O   0  0  0  0  0  0  0  0  0  0  0  0
  -43.6830   28.5160   -0.1600 H   0  0  0  0  0  0  0  0  0  0  0  0
  -43.6670   31.0230    2.4750 O   0  0  0  0  0  0  0  0  0  0  0  0
  -42.2760   31.2210    2.5080 C   0  0  2  0  0  3  0  0  0  0  0  0
  -41.9310   31.3510    3.8730 O   0  0  0  0  0  0  0  0  0  0  0  0
  -40.5880   31.6500    4.1650 C   0  0  2  0  0  3  0  0  0  0  0  0
  -40.1420   32.9440    3.4500 C   0  0  1  0  0  3  0  0  0  0  0  0
  -39.6760   30.4750    3.8530 C   0  0  0  0  0  1  0  0  0  0  0  0
  -40.5990   33.0240    1.9780 C   0  0  2  0  0  3  0  0  0  0  0  0
  -42.0590   32.5670    1.7850 C   0  0  1  0  0  3  0  0  0  0  0  0
  -40.7940   33.9640    4.1760 O   0  0  0  0  0  0  0  0  0  0  0  0
  -40.2420   34.7660    4.2500 H   0  0  0  0  0  0  0  0  0  0  0  0
  -39.8280   32.1000    1.2270 O   0  0  0  0  0  0  0  0  0  0  0  0
  -39.8180   32.3390    0.2810 H   0  0  0  0  0  0  0  0  0  0  0  0
  -42.3420   32.4320    0.4200 O   0  0  0  0  0  0  0  0  0  0  0  0
  -43.2000   32.8650    0.2050 H   0  0  0  0  0  0  0  0  0  0  0  0
  1  5  1  0  0  0  0
  2  7  1  6  0  0  0
  2  1  1  0  0  0  0
  3 36  1  1  0  0  0
  3  2  1  0  0  0  0
  4 53  1  6  0  0  0
  4  3  1  0  0  0  0
  4  6  1  0  0  0  0
  5 50  1  1  0  0  0
  6 55  1  1  0  0  0
  6  5  1  0  0  0  0
  8  7  1  6  0  0  0
  8  9  1  0  0  0  0
  9 10  1  0  0  0  0
 10 12  2  0  0  0  0
 11 15  1  6  0  0  0
 11 13  1  0  0  0  0
 11 10  1  0  0  0  0
 12 19  1  0  0  0  0
 13 17  1  6  0  0  0
 13 16  1  0  0  0  0
 14 11  1  0  0  0  0
 16 19  1  1  0  0  0
 16 18  1  0  0  0  0
 17 23  1  0  0  0  0
 18 21  1  1  0  0  0
 20 24  1  1  0  0  0
 20 18  1  0  0  0  0
 20 22  1  0  0  0  0
 21 25  1  0  0  0  0
 22 26  1  0  0  0  0
 22 25  1  0  0  0  0
 23 20  1  0  0  0  0
 25 27  1  0  0  0  0
 26 28  1  0  0  0  0
 27 29  1  0  0  0  0
 28 30  1  0  0  0  0
 28 27  1  0  0  0  0
 29 32  1  0  0  0  0
 30 31  1  0  0  0  0
 31 32  1  0  0  0  0
 32 33  1  0  0  0  0
 34 26  1  0  0  0  0
 35 14  1  0  0  0  0
 35  8  1  0  0  0  0
 36 37  1  0  0  0  0
 37 38  1  0  0  0  0
 38 39  1  0  0  0  0
 39 40  1  0  0  0  0
 39 41  1  0  0  0  0
 42 46  1  0  0  0  0
 42 40  1  0  0  0  0
 43 37  1  0  0  0  0
 43 42  1  0  0  0  0
 44 40  1  0  0  0  0
 45 44  1  0  0  0  0
 46 47  1  0  0  0  0
 48 49  1  0  0  0  0
 48 43  1  0  0  0  0
 50 51  1  0  0  0  0
 51 52  1  0  0  0  0
 54 53  1  0  0  0  0
 55 56  1  0  0  0  0
 56 57  1  0  0  0  0
 57 58  1  0  0  0  0
 59 58  1  0  0  0  0
 59 63  1  0  0  0  0
 60 58  1  0  0  0  0
 61 59  1  0  0  0  0
 62 61  1  0  0  0  0
 62 56  1  0  0  0  0
 63 64  1  0  0  0  0
 65 61  1  0  0  0  0
 66 65  1  0  0  0  0
 67 62  1  0  0  0  0
 68 67  1  0  0  0  0
M  END
>  <MODEL>
17

>  <REMARK>
 VINA RESULT:    -8.090     25.240     28.503
 INTER + INTRA:         -16.177
 INTER:                 -13.613
 INTRA:                  -2.564
 UNBOUND:                -2.884
  15 active torsions:
  status: ('A' for Active; 'I' for Inactive)
    1  A    between atoms: O1_1  and  C26_41 
    2  A    between atoms: O1_1  and  C28_43 
    3  A    between atoms: O3_3  and  C29_44 
    4  A    between atoms: O3_3  and  C34_49 
    5  A    between atoms: O4_4  and  C30_45 
    6  A    between atoms: O5_5  and  C32_47 
    7  A    between atoms: O5_5  and  C36_51 
    8  A    between atoms: O7_7  and  C33_48 
    9  A    between atoms: O9_9  and  C35_50 
   10  A    between atoms: O10_10  and  C37_52 
   11  A    between atoms: O11_11  and  C39_54 
   12  A    between atoms: O12_12  and  C40_55 
   13  A    between atoms: O13_13  and  C41_56 
   14  A    between atoms: O14_14  and  C43_58 
   15  A    between atoms: C31_46  and  C33_48 

>  <TORSDO>
F 15

$$$$
./ChaconinaA.pdbqt
 OpenBabel10282519553D

 68 76  0  0  1  0  0  0  0  0999 V2000
  -24.3140   21.3770   25.1650 O   0  0  0  0  0  0  0  0  0  0  0  0
  -24.9240   20.9670   23.9580 C   0  0  2  0  0  3  0  0  0  0  0  0
  -24.1440   21.2590   22.6490 C   0  0  1  0  0  3  0  0  0  0  0  0
  -22.6580   21.6250   22.8020 C   0  0  2  0  0  3  0  0  0  0  0  0
  -22.9070   21.2550   25.2400 C   0  0  1  0  0  3  0  0  0  0  0  0
  -22.3400   22.2100   24.1770 C   0  0  1  0  0  3  0  0  0  0  0  0
  -26.0940   21.7330   23.8180 O   0  0  0  0  0  0  0  0  0  0  0  0
  -27.2200   21.0890   23.2300 C   0  0  2  0  0  3  0  0  0  0  0  0
  -28.3170   22.0980   22.8710 C   0  0  0  0  0  2  0  0  0  0  0  0
  -29.5700   21.3800   22.4700 C   0  0  0  0  0  0  0  0  0  0  0  0
  -30.0880   20.3320   23.4270 C   0  0  1  0  0  0  0  0  0  0  0  0
  -30.1890   21.7200   21.3330 C   0  0  0  0  0  3  0  0  0  0  0  0
  -31.1660   19.4480   22.7280 C   0  0  2  0  0  3  0  0  0  0  0  0
  -28.9310   19.3940   23.8590 C   0  0  0  0  0  2  0  0  0  0  0  0
  -30.6600   21.0650   24.6530 C   0  0  0  0  0  1  0  0  0  0  0  0
  -32.1820   20.3380   21.9700 C   0  0  2  0  0  3  0  0  0  0  0  0
  -31.8520   18.4940   23.7280 C   0  0  0  0  0  2  0  0  0  0  0  0
  -33.2600   19.4390   21.3690 C   0  0  1  0  0  3  0  0  0  0  0  0
  -31.4510   21.0970   20.8500 C   0  0  0  0  0  2  0  0  0  0  0  0
  -34.0180   18.6330   22.4670 C   0  0  1  0  0  0  0  0  0  0  0  0
  -34.3890   20.1090   20.5730 C   0  0  0  0  0  2  0  0  0  0  0  0
  -35.1010   17.9290   21.6070 C   0  0  2  0  0  3  0  0  0  0  0  0
  -32.9990   17.6800   23.1040 C   0  0  0  0  0  2  0  0  0  0  0  0
  -34.6460   19.5360   23.5330 C   0  0  0  0  0  1  0  0  0  0  0  0
  -35.4810   19.0090   20.5220 C   0  0  1  0  0  3  0  0  0  0  0  0
  -36.4210   17.5460   22.3100 C   0  0  1  0  0  3  0  0  0  0  0  0
  -36.7800   19.5220   20.9960 N   0  0  2  0  0  0  0  0  0  0  0  0
  -37.5120   18.3490   21.5480 C   0  0  2  0  0  3  0  0  0  0  0  0
  -37.6030   20.2480   20.0160 C   0  0  0  0  0  2  0  0  0  0  0  0
  -38.6600   18.8890   22.4100 C   0  0  0  0  0  2  0  0  0  0  0  0
  -39.5950   19.7130   21.5100 C   0  0  0  0  0  2  0  0  0  0  0  0
  -38.8120   20.8320   20.7940 C   0  0  2  0  0  3  0  0  0  0  0  0
  -39.7230   21.5950   19.8300 C   0  0  0  0  0  1  0  0  0  0  0  0
  -36.6930   16.0450   22.2430 C   0  0  0  0  0  1  0  0  0  0  0  0
  -27.6940   20.1480   24.3440 C   0  0  0  0  0  2  0  0  0  0  0  0
  -24.1680   20.0010   21.9850 O   0  0  0  0  0  0  0  0  0  0  0  0
  -24.4200   18.9120   22.8320 C   0  0  2  0  0  3  0  0  0  0  0  0
  -23.1320   18.3980   23.1400 O   0  0  0  0  0  0  0  0  0  0  0  0
  -23.1090   17.2410   23.9320 C   0  0  2  0  0  3  0  0  0  0  0  0
  -23.9640   16.0950   23.3420 C   0  0  1  0  0  3  0  0  0  0  0  0
  -23.5220   17.5440   25.3680 C   0  0  0  0  0  1  0  0  0  0  0  0
  -25.3040   16.5690   22.7420 C   0  0  2  0  0  3  0  0  0  0  0  0
  -25.1630   17.8840   21.9520 C   0  0  1  0  0  3  0  0  0  0  0  0
  -23.1660   15.5580   22.3070 O   0  0  0  0  0  0  0  0  0  0  0  0
  -23.7000   15.0160   21.6940 H   0  0  0  0  0  0  0  0  0  0  0  0
  -26.1940   16.8880   23.7990 O   0  0  0  0  0  0  0  0  0  0  0  0
  -25.7080   17.1450   24.6040 H   0  0  0  0  0  0  0  0  0  0  0  0
  -26.4330   18.3590   21.5930 O   0  0  0  0  0  0  0  0  0  0  0  0
  -26.5020   18.4380   20.6150 H   0  0  0  0  0  0  0  0  0  0  0  0
  -22.5580   21.6750   26.6770 C   0  0  0  0  0  2  0  0  0  0  0  0
  -21.3380   21.0980   27.0760 O   0  0  0  0  0  0  0  0  0  0  0  0
  -20.6420   21.7910   27.1540 H   0  0  0  0  0  0  0  0  0  0  0  0
  -22.3980   22.5730   21.7830 O   0  0  0  0  0  0  0  0  0  0  0  0
  -21.9240   23.3480   22.1520 H   0  0  0  0  0  0  0  0  0  0  0  0
  -20.9720   22.4890   24.3490 O   0  0  0  0  0  0  0  0  0  0  0  0
  -20.0380   21.5530   23.8720 C   0  0  2  0  0  3  0  0  0  0  0  0
  -19.5750   20.8480   25.0070 O   0  0  0  0  0  0  0  0  0  0  0  0
  -18.5520   19.9050   24.7980 C   0  0  2  0  0  3  0  0  0  0  0  0
  -17.3250   20.5600   24.1280 C   0  0  1  0  0  3  0  0  0  0  0  0
  -19.0580   18.6990   24.0230 C   0  0  0  0  0  1  0  0  0  0  0  0
  -17.6890   21.5040   22.9620 C   0  0  2  0  0  3  0  0  0  0  0  0
  -18.8950   22.4100   23.2880 C   0  0  1  0  0  3  0  0  0  0  0  0
  -16.7540   21.3300   25.1640 O   0  0  0  0  0  0  0  0  0  0  0  0
  -17.1550   21.1250   26.0310 H   0  0  0  0  0  0  0  0  0  0  0  0
  -18.1190   20.7090   21.8700 O   0  0  0  0  0  0  0  0  0  0  0  0
  -18.8880   21.1110   21.4250 H   0  0  0  0  0  0  0  0  0  0  0  0
  -19.3280   23.0650   22.1290 O   0  0  0  0  0  0  0  0  0  0  0  0
  -20.2900   23.2680   22.1910 H   0  0  0  0  0  0  0  0  0  0  0  0
  1  5  1  0  0  0  0
  2  7  1  6  0  0  0
  2  1  1  0  0  0  0
  3 36  1  6  0  0  0
  3  4  1  0  0  0  0
  3  2  1  0  0  0  0
  4 53  1  6  0  0  0
  4  6  1  0  0  0  0
  5 50  1  1  0  0  0
  6 55  1  1  0  0  0
  6  5  1  0  0  0  0
  8  7  1  1  0  0  0
  8 35  1  0  0  0  0
  9  8  1  0  0  0  0
 10  9  1  0  0  0  0
 10 11  1  0  0  0  0
 11 14  1  0  0  0  0
 11 15  1  1  0  0  0
 12 10  2  0  0  0  0
 13 11  1  0  0  0  0
 13 17  1  1  0  0  0
 14 35  1  0  0  0  0
 16 19  1  6  0  0  0
 16 13  1  0  0  0  0
 18 21  1  1  0  0  0
 18 16  1  0  0  0  0
 18 20  1  0  0  0  0
 19 12  1  0  0  0  0
 20 23  1  0  0  0  0
 20 24  1  1  0  0  0
 22 26  1  0  0  0  0
 22 20  1  0  0  0  0
 23 17  1  0  0  0  0
 25 21  1  0  0  0  0
 25 27  1  0  0  0  0
 25 22  1  0  0  0  0
 27 28  1  0  0  0  0
 28 26  1  0  0  0  0
 28 30  1  0  0  0  0
 29 32  1  0  0  0  0
 29 27  1  0  0  0  0
 31 30  1  0  0  0  0
 32 31  1  0  0  0  0
 33 32  1  0  0  0  0
 34 26  1  0  0  0  0
 36 37  1  0  0  0  0
 37 38  1  0  0  0  0
 38 39  1  0  0  0  0
 39 41  1  0  0  0  0
 40 39  1  0  0  0  0
 42 40  1  0  0  0  0
 42 46  1  0  0  0  0
 43 42  1  0  0  0  0
 43 37  1  0  0  0  0
 44 40  1  0  0  0  0
 45 44  1  0  0  0  0
 46 47  1  0  0  0  0
 48 43  1  0  0  0  0
 49 48  1  0  0  0  0
 50 51  1  0  0  0  0
 51 52  1  0  0  0  0
 53 54  1  0  0  0  0
 56 55  1  0  0  0  0
 56 57  1  0  0  0  0
 58 57  1  0  0  0  0
 59 58  1  0  0  0  0
 59 63  1  0  0  0  0
 60 58  1  0  0  0  0
 61 62  1  0  0  0  0
 61 59  1  0  0  0  0
 62 56  1  0  0  0  0
 63 64  1  0  0  0  0
 65 61  1  0  0  0  0
 66 65  1  0  0  0  0
 67 68  1  0  0  0  0
 67 62  1  0  0  0  0
M  END
>  <MODEL>
18

>  <REMARK>
 VINA RESULT:    -8.066     36.164     39.768
 INTER + INTRA:         -16.138
 INTER:                 -13.156
 INTRA:                  -2.982
 UNBOUND:                -2.884
  15 active torsions:
  status: ('A' for Active; 'I' for Inactive)
    1  A    between atoms: O1_1  and  C26_41 
    2  A    between atoms: O1_1  and  C28_43 
    3  A    between atoms: O3_3  and  C29_44 
    4  A    between atoms: O3_3  and  C34_49 
    5  A    between atoms: O4_4  and  C30_45 
    6  A    between atoms: O5_5  and  C32_47 
    7  A    between atoms: O5_5  and  C36_51 
    8  A    between atoms: O7_7  and  C33_48 
    9  A    between atoms: O9_9  and  C35_50 
   10  A    between atoms: O10_10  and  C37_52 
   11  A    between atoms: O11_11  and  C39_54 
   12  A    between atoms: O12_12  and  C40_55 
   13  A    between atoms: O13_13  and  C41_56 
   14  A    between atoms: O14_14  and  C43_58 
   15  A    between atoms: C31_46  and  C33_48 

>  <TORSDO>
F 15

$$$$
./ChaconinaA.pdbqt
 OpenBabel10282519553D

 68 76  0  0  1  0  0  0  0  0999 V2000
  -30.9670   44.2720   -2.0210 O   0  0  0  0  0  0  0  0  0  0  0  0
  -30.0760   44.7970   -1.0580 C   0  0  2  0  0  3  0  0  0  0  0  0
  -30.6880   45.7150    0.0320 C   0  0  1  0  0  3  0  0  0  0  0  0
  -32.2180   45.6780    0.1800 C   0  0  2  0  0  3  0  0  0  0  0  0
  -32.2590   43.9200   -1.5660 C   0  0  1  0  0  3  0  0  0  0  0  0
  -32.9190   45.2290   -1.1020 C   0  0  1  0  0  3  0  0  0  0  0  0
  -29.1960   45.6490   -1.7470 O   0  0  0  0  0  0  0  0  0  0  0  0
  -28.7600   45.2240   -3.0340 C   0  0  2  0  0  3  0  0  0  0  0  0
  -27.3900   44.5390   -2.9620 C   0  0  0  0  0  2  0  0  0  0  0  0
  -26.8530   44.3070   -4.3420 C   0  0  0  0  0  0  0  0  0  0  0  0
  -26.8150   45.5040   -5.2640 C   0  0  1  0  0  0  0  0  0  0  0  0
  -26.3980   43.0950   -4.6770 C   0  0  0  0  0  3  0  0  0  0  0  0
  -26.5710   45.0440   -6.7350 C   0  0  2  0  0  3  0  0  0  0  0  0
  -28.1790   46.2410   -5.2300 C   0  0  0  0  0  2  0  0  0  0  0  0
  -25.6970   46.4370   -4.7670 C   0  0  0  0  0  1  0  0  0  0  0  0
  -25.4140   44.0160   -6.7920 C   0  0  2  0  0  3  0  0  0  0  0  0
  -26.3360   46.2460   -7.6730 C   0  0  0  0  0  2  0  0  0  0  0  0
  -25.1590   43.6540   -8.2530 C   0  0  1  0  0  3  0  0  0  0  0  0
  -25.8180   42.7570   -6.0060 C   0  0  0  0  0  2  0  0  0  0  0  0
  -24.7650   44.9040   -9.0970 C   0  0  1  0  0  0  0  0  0  0  0  0
  -24.0410   42.6480   -8.5570 C   0  0  0  0  0  2  0  0  0  0  0  0
  -24.4520   44.2380  -10.4630 C   0  0  2  0  0  3  0  0  0  0  0  0
  -25.9830   45.8350   -9.1120 C   0  0  0  0  0  2  0  0  0  0  0  0
  -23.5410   45.6320   -8.5340 C   0  0  0  0  0  1  0  0  0  0  0  0
  -23.7720   42.8700  -10.0680 C   0  0  1  0  0  3  0  0  0  0  0  0
  -23.4490   44.9620  -11.3880 C   0  0  1  0  0  3  0  0  0  0  0  0
  -22.3410   43.1160  -10.3280 N   0  0  2  0  0  0  0  0  0  0  0  0
  -22.2810   43.9520  -11.5590 C   0  0  2  0  0  3  0  0  0  0  0  0
  -21.4760   41.9330  -10.4480 C   0  0  0  0  0  2  0  0  0  0  0  0
  -20.8780   44.5680  -11.6260 C   0  0  0  0  0  2  0  0  0  0  0  0
  -19.8520   43.4260  -11.7180 C   0  0  0  0  0  2  0  0  0  0  0  0
  -20.0170   42.4520  -10.5340 C   0  0  2  0  0  3  0  0  0  0  0  0
  -19.0570   41.2690  -10.6730 C   0  0  0  0  0  1  0  0  0  0  0  0
  -24.0690   45.3220  -12.7360 C   0  0  0  0  0  1  0  0  0  0  0  0
  -28.6650   46.5410   -3.8130 C   0  0  0  0  0  2  0  0  0  0  0  0
  -30.1680   45.1610    1.2350 O   0  0  0  0  0  0  0  0  0  0  0  0
  -29.4180   46.0630    2.0020 C   0  0  2  0  0  3  0  0  0  0  0  0
  -28.0660   45.7050    1.7480 O   0  0  0  0  0  0  0  0  0  0  0  0
  -27.0980   46.4240    2.4630 C   0  0  2  0  0  3  0  0  0  0  0  0
  -27.3330   46.3880    3.9920 C   0  0  1  0  0  3  0  0  0  0  0  0
  -26.9930   47.8610    1.9620 C   0  0  0  0  0  1  0  0  0  0  0  0
  -28.8170   46.5210    4.3920 C   0  0  2  0  0  3  0  0  0  0  0  0
  -29.7510   45.7160    3.4690 C   0  0  1  0  0  3  0  0  0  0  0  0
  -26.8670   45.1150    4.3880 O   0  0  0  0  0  0  0  0  0  0  0  0
  -25.8990   45.1180    4.5200 H   0  0  0  0  0  0  0  0  0  0  0  0
  -29.2230   47.8690    4.2120 O   0  0  0  0  0  0  0  0  0  0  0  0
  -30.0320   47.9240    3.6700 H   0  0  0  0  0  0  0  0  0  0  0  0
  -31.0870   46.0220    3.7630 O   0  0  0  0  0  0  0  0  0  0  0  0
  -31.6910   45.5070    3.1820 H   0  0  0  0  0  0  0  0  0  0  0  0
  -32.9460   43.3000   -2.7930 C   0  0  0  0  0  2  0  0  0  0  0  0
  -33.2070   44.2870   -3.7630 O   0  0  0  0  0  0  0  0  0  0  0  0
  -33.2540   45.1760   -3.3410 H   0  0  0  0  0  0  0  0  0  0  0  0
  -32.5960   47.0000    0.5180 O   0  0  0  0  0  0  0  0  0  0  0  0
  -33.4840   47.2040    0.1570 H   0  0  0  0  0  0  0  0  0  0  0  0
  -34.3150   45.1300   -0.9560 O   0  0  0  0  0  0  0  0  0  0  0  0
  -35.1220   46.0420   -1.6580 C   0  0  2  0  0  3  0  0  0  0  0  0
  -34.2350   46.9340   -2.3050 O   0  0  0  0  0  0  0  0  0  0  0  0
  -34.8110   48.0080   -3.0070 C   0  0  2  0  0  3  0  0  0  0  0  0
  -35.7200   48.8480   -2.0840 C   0  0  1  0  0  3  0  0  0  0  0  0
  -35.5380   47.5300   -4.2540 C   0  0  0  0  0  1  0  0  0  0  0  0
  -36.6390   47.9970   -1.1820 C   0  0  2  0  0  3  0  0  0  0  0  0
  -35.9050   46.7910   -0.5590 C   0  0  1  0  0  3  0  0  0  0  0  0
  -34.8060   49.5420   -1.2630 O   0  0  0  0  0  0  0  0  0  0  0  0
  -34.7740   50.4940   -1.4800 H   0  0  0  0  0  0  0  0  0  0  0  0
  -37.6480   47.4240   -1.9970 O   0  0  0  0  0  0  0  0  0  0  0  0
  -37.2610   46.9810   -2.7750 H   0  0  0  0  0  0  0  0  0  0  0  0
  -36.8280   45.9300    0.0470 O   0  0  0  0  0  0  0  0  0  0  0  0
  -36.3600   45.1860    0.4910 H   0  0  0  0  0  0  0  0  0  0  0  0
  1  5  1  0  0  0  0
  1  2  1  0  0  0  0
  2  7  1  6  0  0  0
  2  3  1  0  0  0  0
  3  4  1  0  0  0  0
  3 36  1  1  0  0  0
  4 53  1  6  0  0  0
  5 50  1  6  0  0  0
  5  6  1  0  0  0  0
  6 55  1  1  0  0  0
  6  4  1  0  0  0  0
  8  9  1  0  0  0  0
  8  7  1  1  0  0  0
 10  9  1  0  0  0  0
 11 14  1  0  0  0  0
 11 15  1  1  0  0  0
 11 10  1  0  0  0  0
 12 10  2  0  0  0  0
 13 17  1  6  0  0  0
 13 11  1  0  0  0  0
 14 35  1  0  0  0  0
 16 13  1  0  0  0  0
 16 19  1  1  0  0  0
 18 21  1  1  0  0  0
 18 16  1  0  0  0  0
 19 12  1  0  0  0  0
 20 24  1  1  0  0  0
 20 18  1  0  0  0  0
 22 25  1  0  0  0  0
 22 20  1  0  0  0  0
 23 20  1  0  0  0  0
 23 17  1  0  0  0  0
 25 21  1  0  0  0  0
 26 22  1  0  0  0  0
 27 25  1  0  0  0  0
 28 26  1  0  0  0  0
 28 27  1  0  0  0  0
 29 27  1  0  0  0  0
 30 28  1  0  0  0  0
 31 30  1  0  0  0  0
 31 32  1  0  0  0  0
 32 29  1  0  0  0  0
 33 32  1  0  0  0  0
 34 26  1  0  0  0  0
 35  8  1  0  0  0  0
 36 37  1  0  0  0  0
 37 43  1  0  0  0  0
 38 37  1  0  0  0  0
 38 39  1  0  0  0  0
 39 40  1  0  0  0  0
 40 44  1  0  0  0  0
 40 42  1  0  0  0  0
 41 39  1  0  0  0  0
 43 48  1  0  0  0  0
 43 42  1  0  0  0  0
 44 45  1  0  0  0  0
 46 42  1  0  0  0  0
 47 46  1  0  0  0  0
 49 48  1  0  0  0  0
 51 52  1  0  0  0  0
 51 50  1  0  0  0  0
 54 53  1  0  0  0  0
 56 55  1  0  0  0  0
 56 62  1  0  0  0  0
 57 56  1  0  0  0  0
 58 57  1  0  0  0  0
 58 59  1  0  0  0  0
 59 63  1  0  0  0  0
 59 61  1  0  0  0  0
 60 58  1  0  0  0  0
 61 62  1  0  0  0  0
 62 67  1  0  0  0  0
 64 63  1  0  0  0  0
 65 61  1  0  0  0  0
 66 65  1  0  0  0  0
 67 68  1  0  0  0  0
M  END
>  <MODEL>
19

>  <REMARK>
 VINA RESULT:    -8.057      5.966     10.979
 INTER + INTRA:         -16.123
 INTER:                 -13.608
 INTRA:                  -2.515
 UNBOUND:                -2.884
  15 active torsions:
  status: ('A' for Active; 'I' for Inactive)
    1  A    between atoms: O1_1  and  C26_41 
    2  A    between atoms: O1_1  and  C28_43 
    3  A    between atoms: O3_3  and  C29_44 
    4  A    between atoms: O3_3  and  C34_49 
    5  A    between atoms: O4_4  and  C30_45 
    6  A    between atoms: O5_5  and  C32_47 
    7  A    between atoms: O5_5  and  C36_51 
    8  A    between atoms: O7_7  and  C33_48 
    9  A    between atoms: O9_9  and  C35_50 
   10  A    between atoms: O10_10  and  C37_52 
   11  A    between atoms: O11_11  and  C39_54 
   12  A    between atoms: O12_12  and  C40_55 
   13  A    between atoms: O13_13  and  C41_56 
   14  A    between atoms: O14_14  and  C43_58 
   15  A    between atoms: C31_46  and  C33_48 

>  <TORSDO>
F 15

$$$$
./ChaconinaA.pdbqt
 OpenBabel10282519553D

 68 76  0  0  1  0  0  0  0  0999 V2000
  -42.5720   30.1380    3.3390 O   0  0  0  0  0  0  0  0  0  0  0  0
  -42.6130   29.4810    2.0890 C   0  0  2  0  0  3  0  0  0  0  0  0
  -43.9980   29.3890    1.3950 C   0  0  1  0  0  3  0  0  0  0  0  0
  -45.1000   30.3140    1.9380 C   0  0  2  0  0  3  0  0  0  0  0  0
  -43.4210   31.2580    3.4970 C   0  0  1  0  0  3  0  0  0  0  0  0
  -44.8580   30.7200    3.3910 C   0  0  1  0  0  3  0  0  0  0  0  0
  -42.2790   28.1370    2.3290 O   0  0  0  0  0  0  0  0  0  0  0  0
  -43.3410   27.2670    2.7080 C   0  0  2  0  0  3  0  0  0  0  0  0
  -43.2820   26.9290    4.2020 C   0  0  0  0  0  2  0  0  0  0  0  0
  -44.2610   25.8410    4.5270 C   0  0  0  0  0  0  0  0  0  0  0  0
  -44.1900   24.5890    3.6830 C   0  0  1  0  0  0  0  0  0  0  0  0
  -45.1060   26.0000    5.5530 C   0  0  0  0  0  3  0  0  0  0  0  0
  -45.4660   23.7190    3.9000 C   0  0  2  0  0  3  0  0  0  0  0  0
  -44.1380   24.9680    2.1800 C   0  0  0  0  0  2  0  0  0  0  0  0
  -42.9100   23.8340    4.0830 C   0  0  0  0  0  1  0  0  0  0  0  0
  -45.7770   23.5880    5.4110 C   0  0  2  0  0  3  0  0  0  0  0  0
  -45.3410   22.3480    3.2050 C   0  0  0  0  0  2  0  0  0  0  0  0
  -46.9830   22.6670    5.5790 C   0  0  1  0  0  3  0  0  0  0  0  0
  -46.0990   24.9790    5.9830 C   0  0  0  0  0  2  0  0  0  0  0  0
  -46.7110   21.2470    4.9960 C   0  0  1  0  0  0  0  0  0  0  0  0
  -47.4720   22.3810    7.0060 C   0  0  0  0  0  2  0  0  0  0  0  0
  -48.0150   20.5150    5.4090 C   0  0  2  0  0  3  0  0  0  0  0  0
  -46.5310   21.4140    3.4830 C   0  0  0  0  0  2  0  0  0  0  0  0
  -45.4760   20.5840    5.6130 C   0  0  0  0  0  1  0  0  0  0  0  0
  -48.3530   21.1170    6.8270 C   0  0  1  0  0  3  0  0  0  0  0  0
  -47.9350   18.9850    5.6020 C   0  0  1  0  0  3  0  0  0  0  0  0
  -47.9480   20.0450    7.7550 N   0  0  2  0  0  0  0  0  0  0  0  0
  -48.3140   18.7630    7.0930 C   0  0  2  0  0  3  0  0  0  0  0  0
  -48.4900   20.1100    9.1210 C   0  0  0  0  0  2  0  0  0  0  0  0
  -47.5510   17.6420    7.8100 C   0  0  0  0  0  2  0  0  0  0  0  0
  -47.9980   17.6170    9.2810 C   0  0  0  0  0  2  0  0  0  0  0  0
  -47.7820   18.9970    9.9370 C   0  0  2  0  0  3  0  0  0  0  0  0
  -48.3090   18.9970   11.3730 C   0  0  0  0  0  1  0  0  0  0  0  0
  -48.8890   18.2380    4.6730 C   0  0  0  0  0  1  0  0  0  0  0  0
  -43.0740   26.0160    1.8600 C   0  0  0  0  0  2  0  0  0  0  0  0
  -43.7180   29.8500    0.0780 O   0  0  0  0  0  0  0  0  0  0  0  0
  -44.3240   29.0920   -0.9340 C   0  0  2  0  0  3  0  0  0  0  0  0
  -43.9820   27.7490   -0.6230 O   0  0  0  0  0  0  0  0  0  0  0  0
  -44.4160   26.7790   -1.5380 C   0  0  2  0  0  3  0  0  0  0  0  0
  -43.9590   27.0770   -2.9860 C   0  0  1  0  0  3  0  0  0  0  0  0
  -45.9270   26.5920   -1.4720 C   0  0  0  0  0  1  0  0  0  0  0  0
  -44.0520   28.5690   -3.3700 C   0  0  2  0  0  3  0  0  0  0  0  0
  -43.5920   29.4990   -2.2310 C   0  0  1  0  0  3  0  0  0  0  0  0
  -42.6030   26.6830   -3.0150 O   0  0  0  0  0  0  0  0  0  0  0  0
  -42.0570   27.2520   -2.4390 H   0  0  0  0  0  0  0  0  0  0  0  0
  -45.4140   28.9080   -3.5720 O   0  0  0  0  0  0  0  0  0  0  0  0
  -45.7980   28.4010   -4.3110 H   0  0  0  0  0  0  0  0  0  0  0  0
  -43.8730   30.8310   -2.5670 O   0  0  0  0  0  0  0  0  0  0  0  0
  -43.1460   31.2040   -3.1140 H   0  0  0  0  0  0  0  0  0  0  0  0
  -43.0830   31.8060    4.8930 C   0  0  0  0  0  2  0  0  0  0  0  0
  -43.3740   30.8470    5.8820 O   0  0  0  0  0  0  0  0  0  0  0  0
  -42.5570   30.3560    6.1320 H   0  0  0  0  0  0  0  0  0  0  0  0
  -46.3020   29.5750    1.8210 O   0  0  0  0  0  0  0  0  0  0  0  0
  -46.5840   29.5300    0.8830 H   0  0  0  0  0  0  0  0  0  0  0  0
  -45.8270   31.6170    3.8760 O   0  0  0  0  0  0  0  0  0  0  0  0
  -46.6770   31.1820    4.9080 C   0  0  2  0  0  3  0  0  0  0  0  0
  -46.1090   29.9870    5.4070 O   0  0  0  0  0  0  0  0  0  0  0  0
  -46.8340   29.3020    6.3980 C   0  0  2  0  0  3  0  0  0  0  0  0
  -48.2590   28.9670    5.9090 C   0  0  1  0  0  3  0  0  0  0  0  0
  -46.8400   30.0690    7.7120 C   0  0  0  0  0  1  0  0  0  0  0  0
  -48.9540   30.1390    5.1830 C   0  0  2  0  0  3  0  0  0  0  0  0
  -48.0140   30.8690    4.2010 C   0  0  1  0  0  3  0  0  0  0  0  0
  -48.0530   27.9260    4.9790 O   0  0  0  0  0  0  0  0  0  0  0  0
  -48.3420   28.1790    4.0810 H   0  0  0  0  0  0  0  0  0  0  0  0
  -49.2950   31.1160    6.1520 O   0  0  0  0  0  0  0  0  0  0  0  0
  -49.2890   30.7370    7.0510 H   0  0  0  0  0  0  0  0  0  0  0  0
  -48.6130   32.0530    3.7570 O   0  0  0  0  0  0  0  0  0  0  0  0
  -48.0470   32.4880    3.0770 H   0  0  0  0  0  0  0  0  0  0  0  0
  1  5  1  0  0  0  0
  2  7  1  1  0  0  0
  2  1  1  0  0  0  0
  3 36  1  6  0  0  0
  3  4  1  0  0  0  0
  3  2  1  0  0  0  0
  4 53  1  1  0  0  0
  4  6  1  0  0  0  0
  5 50  1  1  0  0  0
  6  5  1  0  0  0  0
  6 55  1  6  0  0  0
  8  7  1  1  0  0  0
  8  9  1  0  0  0  0
  9 10  1  0  0  0  0
 10 12  2  0  0  0  0
 11 13  1  0  0  0  0
 11 15  1  1  0  0  0
 11 10  1  0  0  0  0
 12 19  1  0  0  0  0
 13 17  1  1  0  0  0
 13 16  1  0  0  0  0
 14 11  1  0  0  0  0
 16 18  1  0  0  0  0
 16 19  1  6  0  0  0
 17 23  1  0  0  0  0
 18 21  1  1  0  0  0
 20 22  1  0  0  0  0
 20 18  1  0  0  0  0
 20 24  1  1  0  0  0
 22 26  1  0  0  0  0
 22 25  1  0  0  0  0
 23 20  1  0  0  0  0
 25 21  1  0  0  0  0
 25 27  1  0  0  0  0
 26 28  1  0  0  0  0
 27 29  1  0  0  0  0
 28 27  1  0  0  0  0
 28 30  1  0  0  0  0
 29 32  1  0  0  0  0
 30 31  1  0  0  0  0
 31 32  1  0  0  0  0
 32 33  1  0  0  0  0
 34 26  1  0  0  0  0
 35 14  1  0  0  0  0
 35  8  1  0  0  0  0
 37 38  1  0  0  0  0
 37 36  1  0  0  0  0
 39 41  1  0  0  0  0
 39 38  1  0  0  0  0
 40 39  1  0  0  0  0
 42 40  1  0  0  0  0
 42 43  1  0  0  0  0
 43 37  1  0  0  0  0
 44 40  1  0  0  0  0
 44 45  1  0  0  0  0
 46 42  1  0  0  0  0
 47 46  1  0  0  0  0
 48 43  1  0  0  0  0
 49 48  1  0  0  0  0
 50 51  1  0  0  0  0
 51 52  1  0  0  0  0
 54 53  1  0  0  0  0
 55 56  1  0  0  0  0
 56 57  1  0  0  0  0
 57 58  1  0  0  0  0
 58 60  1  0  0  0  0
 59 58  1  0  0  0  0
 61 59  1  0  0  0  0
 61 65  1  0  0  0  0
 62 56  1  0  0  0  0
 62 61  1  0  0  0  0
 63 59  1  0  0  0  0
 64 63  1  0  0  0  0
 65 66  1  0  0  0  0
 67 62  1  0  0  0  0
 68 67  1  0  0  0  0
M  END
>  <MODEL>
20

>  <REMARK>
 VINA RESULT:    -8.010     23.800     27.535
 INTER + INTRA:         -16.046
 INTER:                 -12.855
 INTRA:                  -3.191
 UNBOUND:                -2.884
  15 active torsions:
  status: ('A' for Active; 'I' for Inactive)
    1  A    between atoms: O1_1  and  C26_41 
    2  A    between atoms: O1_1  and  C28_43 
    3  A    between atoms: O3_3  and  C29_44 
    4  A    between atoms: O3_3  and  C34_49 
    5  A    between atoms: O4_4  and  C30_45 
    6  A    between atoms: O5_5  and  C32_47 
    7  A    between atoms: O5_5  and  C36_51 
    8  A    between atoms: O7_7  and  C33_48 
    9  A    between atoms: O9_9  and  C35_50 
   10  A    between atoms: O10_10  and  C37_52 
   11  A    between atoms: O11_11  and  C39_54 
   12  A    between atoms: O12_12  and  C40_55 
   13  A    between atoms: O13_13  and  C41_56 
   14  A    between atoms: O14_14  and  C43_58 
   15  A    between atoms: C31_46  and  C33_48 

>  <TORSDO>
F 15

$$$$
