./Citisina.pdbqt
 OpenBabel10282519553D

 16 18  0  0  1  0  0  0  0  0999 V2000
  -28.3800   24.8190   -5.1880 O   0  0  0  0  0  0  0  0  0  0  0  0
  -26.8070   23.7790   -6.4130 N   0  0  0  0  0  0  0  0  0  0  0  0
  -24.6780   25.2040   -7.9380 N   0  0  0  0  0  4  0  0  0  0  0  0
  -24.3790   24.0100   -5.7410 C   0  0  2  0  0  3  0  0  0  0  0  0
  -24.9990   22.7230   -7.7620 C   0  0  2  0  0  3  0  0  0  0  0  0
  -24.1630   22.6890   -6.4810 C   0  0  0  0  0  2  0  0  0  0  0  0
  -25.8550   24.1160   -5.3320 C   0  0  0  0  0  2  0  0  0  0  0  0
  -23.9210   25.1890   -6.6180 C   0  0  0  0  0  2  0  0  0  0  0  0
  -24.5100   23.8770   -8.6640 C   0  0  0  0  0  2  0  0  0  0  0  0
  -26.4640   22.9290   -7.4530 C   0  0  0  0  0  0  0  0  0  0  0  0
  -27.4260   22.3880   -8.2600 C   0  0  0  0  0  3  0  0  0  0  0  0
  -28.1910   24.0660   -6.1140 C   0  0  0  0  0  0  0  0  0  0  0  0
  -28.8100   22.6330   -7.9960 C   0  0  0  0  0  3  0  0  0  0  0  0
  -29.1740   23.4480   -6.9770 C   0  0  0  0  0  3  0  0  0  0  0  0
  -25.6990   25.3390   -7.7280 H   0  0  0  0  0  0  0  0  0  0  0  0
  -24.3560   25.9900   -8.5370 H   0  0  0  0  0  0  0  0  0  0  0  0
  2 12  1  0  0  0  0
  2  7  1  0  0  0  0
  3 15  1  0  0  0  0
  3  8  1  0  0  0  0
  4  8  1  6  0  0  0
  4  7  1  0  0  0  0
  5  9  1  6  0  0  0
  5 10  1  0  0  0  0
  5  6  1  0  0  0  0
  6  4  1  0  0  0  0
  9  3  1  0  0  0  0
 10  2  1  0  0  0  0
 11 13  1  0  0  0  0
 11 10  2  0  0  0  0
 12  1  2  0  0  0  0
 13 14  2  0  0  0  0
 14 12  1  0  0  0  0
 16  3  1  0  0  0  0
M  END
>  <MODEL>
1

>  <REMARK>
 VINA RESULT:    -7.294      0.000      0.000
 INTER + INTRA:          -7.294
 INTER:                  -7.294
 INTRA:                   0.000
 UNBOUND:                 0.000
  0 active torsions:
  status: ('A' for Active; 'I' for Inactive)

>  <TORSDO>
F 0

$$$$
./Citisina.pdbqt
 OpenBabel10282519553D

 16 18  0  0  1  0  0  0  0  0999 V2000
  -23.1390   22.1060   -4.3560 O   0  0  0  0  0  0  0  0  0  0  0  0
  -24.1280   22.2510   -6.3700 N   0  0  0  0  0  0  0  0  0  0  0  0
  -26.9580   23.0980   -6.7750 N   0  0  0  0  0  4  0  0  0  0  0  0
  -24.9150   24.5120   -7.1880 C   0  0  2  0  0  3  0  0  0  0  0  0
  -25.3020   22.4850   -8.5550 C   0  0  2  0  0  3  0  0  0  0  0  0
  -24.7860   23.9250   -8.5950 C   0  0  0  0  0  2  0  0  0  0  0  0
  -24.0110   23.7190   -6.2330 C   0  0  0  0  0  2  0  0  0  0  0  0
  -26.3900   24.5100   -6.7470 C   0  0  0  0  0  2  0  0  0  0  0  0
  -26.7940   22.4840   -8.1570 C   0  0  0  0  0  2  0  0  0  0  0  0
  -24.5270   21.6550   -7.5560 C   0  0  0  0  0  0  0  0  0  0  0  0
  -24.3370   20.3180   -7.7650 C   0  0  0  0  0  3  0  0  0  0  0  0
  -23.4440   21.4900   -5.3500 C   0  0  0  0  0  0  0  0  0  0  0  0
  -23.6530   19.5260   -6.7900 C   0  0  0  0  0  3  0  0  0  0  0  0
  -23.2390   20.0850   -5.6280 C   0  0  0  0  0  3  0  0  0  0  0  0
  -26.4170   22.5150   -6.0870 H   0  0  0  0  0  0  0  0  0  0  0  0
  -27.9590   23.1000   -6.4930 H   0  0  0  0  0  0  0  0  0  0  0  0
  2  7  1  0  0  0  0
  2 12  1  0  0  0  0
  3  8  1  0  0  0  0
  3 16  1  0  0  0  0
  3 15  1  0  0  0  0
  4  6  1  6  0  0  0
  4  8  1  0  0  0  0
  4  7  1  0  0  0  0
  5  6  1  1  0  0  0
  5  9  1  0  0  0  0
  5 10  1  0  0  0  0
  9  3  1  0  0  0  0
 10  2  1  0  0  0  0
 11 10  2  0  0  0  0
 11 13  1  0  0  0  0
 12  1  2  0  0  0  0
 13 14  2  0  0  0  0
 14 12  1  0  0  0  0
M  END
>  <MODEL>
2

>  <REMARK>
 VINA RESULT:    -7.213      2.408      3.959
 INTER + INTRA:          -7.213
 INTER:                  -7.213
 INTRA:                   0.000
 UNBOUND:                 0.000
  0 active torsions:
  status: ('A' for Active; 'I' for Inactive)

>  <TORSDO>
F 0

$$$$
./Citisina.pdbqt
 OpenBabel10282519553D

 16 18  0  0  1  0  0  0  0  0999 V2000
  -26.3750   20.5180   -9.3760 O   0  0  0  0  0  0  0  0  0  0  0  0
  -25.3890   22.4220   -8.6990 N   0  0  0  0  0  0  0  0  0  0  0  0
  -26.6930   24.4260   -6.9180 N   0  0  0  0  0  4  0  0  0  0  0  0
  -24.9350   22.7580   -6.2330 C   0  0  2  0  0  3  0  0  0  0  0  0
  -24.3720   24.5360   -7.8610 C   0  0  2  0  0  3  0  0  0  0  0  0
  -23.8350   23.7230   -6.6800 C   0  0  0  0  0  2  0  0  0  0  0  0
  -25.2320   21.7770   -7.3770 C   0  0  0  0  0  2  0  0  0  0  0  0
  -26.1810   23.5440   -5.7880 C   0  0  0  0  0  2  0  0  0  0  0  0
  -25.5950   25.3600   -7.4050 C   0  0  0  0  0  2  0  0  0  0  0  0
  -24.7860   23.6330   -9.0010 C   0  0  0  0  0  0  0  0  0  0  0  0
  -24.6830   24.0590  -10.2950 C   0  0  0  0  0  3  0  0  0  0  0  0
  -25.8660   21.5490   -9.7470 C   0  0  0  0  0  0  0  0  0  0  0  0
  -25.1290   23.2250  -11.3670 C   0  0  0  0  0  3  0  0  0  0  0  0
  -25.7090   22.0290  -11.1030 C   0  0  0  0  0  3  0  0  0  0  0  0
  -26.9750   23.8040   -7.7170 H   0  0  0  0  0  0  0  0  0  0  0  0
  -27.5240   24.9700   -6.6110 H   0  0  0  0  0  0  0  0  0  0  0  0
  2  7  1  0  0  0  0
  3 16  1  0  0  0  0
  3  8  1  0  0  0  0
  4  7  1  6  0  0  0
  4  8  1  0  0  0  0
  5  9  1  1  0  0  0
  5  6  1  0  0  0  0
  6  4  1  0  0  0  0
  9  3  1  0  0  0  0
 10  2  1  0  0  0  0
 10  5  1  0  0  0  0
 11 10  2  0  0  0  0
 12  1  2  0  0  0  0
 12  2  1  0  0  0  0
 13 14  2  0  0  0  0
 13 11  1  0  0  0  0
 14 12  1  0  0  0  0
 15  3  1  0  0  0  0
M  END
>  <MODEL>
3

>  <REMARK>
 VINA RESULT:    -7.201      2.509      3.653
 INTER + INTRA:          -7.201
 INTER:                  -7.201
 INTRA:                   0.000
 UNBOUND:                 0.000
  0 active torsions:
  status: ('A' for Active; 'I' for Inactive)

>  <TORSDO>
F 0

$$$$
./Citisina.pdbqt
 OpenBabel10282519553D

 16 18  0  0  1  0  0  0  0  0999 V2000
  -24.9800   23.7010  -11.6850 O   0  0  0  0  0  0  0  0  0  0  0  0
  -24.9040   23.7320   -9.4370 N   0  0  0  0  0  0  0  0  0  0  0  0
  -27.3150   23.5600   -7.6910 N   0  0  0  0  0  4  0  0  0  0  0  0
  -25.6870   21.6960   -8.1570 C   0  0  2  0  0  3  0  0  0  0  0  0
  -24.9260   23.7160   -6.9470 C   0  0  2  0  0  3  0  0  0  0  0  0
  -24.7830   22.1950   -7.0280 C   0  0  0  0  0  2  0  0  0  0  0  0
  -25.1930   22.2820   -9.4880 C   0  0  0  0  0  2  0  0  0  0  0  0
  -27.1540   22.0560   -7.8590 C   0  0  0  0  0  2  0  0  0  0  0  0
  -26.3870   24.0780   -6.6030 C   0  0  0  0  0  2  0  0  0  0  0  0
  -24.5530   24.3700   -8.2580 C   0  0  0  0  0  0  0  0  0  0  0  0
  -23.9980   25.6190   -8.2770 C   0  0  0  0  0  3  0  0  0  0  0  0
  -24.6350   24.3420  -10.7190 C   0  0  0  0  0  0  0  0  0  0  0  0
  -23.7010   26.2570   -9.5210 C   0  0  0  0  0  3  0  0  0  0  0  0
  -24.0200   25.6510  -10.6900 C   0  0  0  0  0  3  0  0  0  0  0  0
  -27.0500   24.0200   -8.5980 H   0  0  0  0  0  0  0  0  0  0  0  0
  -28.3020   23.8010   -7.4730 H   0  0  0  0  0  0  0  0  0  0  0  0
  1 12  2  0  0  0  0
  2 10  1  0  0  0  0
  3 16  1  0  0  0  0
  3  9  1  0  0  0  0
  4  7  1  6  0  0  0
  4  8  1  0  0  0  0
  4  6  1  0  0  0  0
  5  6  1  6  0  0  0
  5  9  1  0  0  0  0
  7  2  1  0  0  0  0
  8  3  1  0  0  0  0
 10  5  1  0  0  0  0
 11 10  2  0  0  0  0
 12 14  1  0  0  0  0
 12  2  1  0  0  0  0
 13 11  1  0  0  0  0
 14 13  2  0  0  0  0
 15  3  1  0  0  0  0
M  END
>  <MODEL>
4

>  <REMARK>
 VINA RESULT:    -7.133      2.583      4.574
 INTER + INTRA:          -7.133
 INTER:                  -7.133
 INTRA:                   0.000
 UNBOUND:                 0.000
  0 active torsions:
  status: ('A' for Active; 'I' for Inactive)

>  <TORSDO>
F 0

$$$$
./Citisina.pdbqt
 OpenBabel10282519553D

 16 18  0  0  1  0  0  0  0  0999 V2000
  -25.5040   20.6570   -8.9380 O   0  0  0  0  0  0  0  0  0  0  0  0
  -25.0190   21.9420   -7.1580 N   0  0  0  0  0  0  0  0  0  0  0  0
  -23.8480   24.6770   -7.3530 N   0  0  0  0  0  4  0  0  0  0  0  0
  -26.2540   24.1290   -6.8520 C   0  0  2  0  0  3  0  0  0  0  0  0
  -24.4850   23.4600   -5.2560 C   0  0  2  0  0  3  0  0  0  0  0  0
  -25.9180   23.9830   -5.3670 C   0  0  0  0  0  2  0  0  0  0  0  0
  -26.2130   22.7420   -7.5110 C   0  0  0  0  0  2  0  0  0  0  0  0
  -25.2910   25.1290   -7.5170 C   0  0  0  0  0  2  0  0  0  0  0  0
  -23.5130   24.4830   -5.8820 C   0  0  0  0  0  2  0  0  0  0  0  0
  -24.3310   22.1360   -5.9700 C   0  0  0  0  0  0  0  0  0  0  0  0
  -23.4370   21.2050   -5.5210 C   0  0  0  0  0  3  0  0  0  0  0  0
  -24.8590   20.7250   -7.9190 C   0  0  0  0  0  0  0  0  0  0  0  0
  -23.2540   19.9790   -6.2320 C   0  0  0  0  0  3  0  0  0  0  0  0
  -23.9240   19.7560   -7.3890 C   0  0  0  0  0  3  0  0  0  0  0  0
  -23.7370   23.7530   -7.8420 H   0  0  0  0  0  0  0  0  0  0  0  0
  -23.1970   25.3620   -7.7870 H   0  0  0  0  0  0  0  0  0  0  0  0
  1 12  2  0  0  0  0
  2 10  1  0  0  0  0
  3  9  1  0  0  0  0
  4  8  1  6  0  0  0
  4  6  1  0  0  0  0
  5  9  1  6  0  0  0
  6  5  1  0  0  0  0
  7  2  1  0  0  0  0
  7  4  1  0  0  0  0
  8  3  1  0  0  0  0
 10 11  2  0  0  0  0
 10  5  1  0  0  0  0
 12 14  1  0  0  0  0
 12  2  1  0  0  0  0
 13 11  1  0  0  0  0
 14 13  2  0  0  0  0
 15  3  1  0  0  0  0
 16  3  1  0  0  0  0
M  END
>  <MODEL>
5

>  <REMARK>
 VINA RESULT:    -6.995      2.395      4.005
 INTER + INTRA:          -6.995
 INTER:                  -6.995
 INTRA:                   0.000
 UNBOUND:                 0.000
  0 active torsions:
  status: ('A' for Active; 'I' for Inactive)

>  <TORSDO>
F 0

$$$$
./Citisina.pdbqt
 OpenBabel10282519553D

 16 18  0  0  1  0  0  0  0  0999 V2000
  -24.1270   25.9350   -9.1410 O   0  0  0  0  0  0  0  0  0  0  0  0
  -24.7370   23.8140   -8.7050 N   0  0  0  0  0  0  0  0  0  0  0  0
  -27.5320   22.8060   -8.9530 N   0  0  0  0  0  4  0  0  0  0  0  0
  -25.6590   22.3940  -10.5850 C   0  0  2  0  0  3  0  0  0  0  0  0
  -25.5080   21.4830   -8.2890 C   0  0  2  0  0  3  0  0  0  0  0  0
  -25.1930   21.1940   -9.7580 C   0  0  0  0  0  2  0  0  0  0  0  0
  -24.8480   23.6300  -10.1690 C   0  0  0  0  0  2  0  0  0  0  0  0
  -27.1750   22.5960  -10.4180 C   0  0  0  0  0  2  0  0  0  0  0  0
  -27.0330   21.6410   -8.1110 C   0  0  0  0  0  2  0  0  0  0  0  0
  -24.8250   22.7490   -7.8230 C   0  0  0  0  0  0  0  0  0  0  0  0
  -24.4210   22.8810   -6.5240 C   0  0  0  0  0  3  0  0  0  0  0  0
  -24.1560   25.0720   -8.2950 C   0  0  0  0  0  0  0  0  0  0  0  0
  -23.8280   24.1020   -6.0750 C   0  0  0  0  0  3  0  0  0  0  0  0
  -23.7150   25.1550   -6.9190 C   0  0  0  0  0  3  0  0  0  0  0  0
  -27.0530   23.6810   -8.6220 H   0  0  0  0  0  0  0  0  0  0  0  0
  -28.5580   22.9250   -8.8390 H   0  0  0  0  0  0  0  0  0  0  0  0
  1 12  2  0  0  0  0
  2 12  1  0  0  0  0
  2 10  1  0  0  0  0
  3 16  1  0  0  0  0
  3 15  1  0  0  0  0
  3  9  1  0  0  0  0
  4  8  1  1  0  0  0
  4  7  1  0  0  0  0
  4  6  1  0  0  0  0
  5  6  1  6  0  0  0
  5  9  1  0  0  0  0
  5 10  1  0  0  0  0
  7  2  1  0  0  0  0
  8  3  1  0  0  0  0
 10 11  2  0  0  0  0
 11 13  1  0  0  0  0
 12 14  1  0  0  0  0
 14 13  2  0  0  0  0
M  END
>  <MODEL>
6

>  <REMARK>
 VINA RESULT:    -6.973      2.392      4.407
 INTER + INTRA:          -6.973
 INTER:                  -6.973
 INTRA:                   0.000
 UNBOUND:                 0.000
  0 active torsions:
  status: ('A' for Active; 'I' for Inactive)

>  <TORSDO>
F 0

$$$$
./Citisina.pdbqt
 OpenBabel10282519553D

 16 18  0  0  1  0  0  0  0  0999 V2000
  -30.2310   21.1850  -13.1230 O   0  0  0  0  0  0  0  0  0  0  0  0
  -32.2040   21.6170  -14.1120 N   0  0  0  0  0  0  0  0  0  0  0  0
  -32.4850   22.4820  -16.9510 N   0  0  0  0  0  4  0  0  0  0  0  0
  -32.9420   20.1740  -16.0540 C   0  0  2  0  0  3  0  0  0  0  0  0
  -34.3380   22.0780  -15.3110 C   0  0  2  0  0  3  0  0  0  0  0  0
  -34.3650   20.5930  -15.6820 C   0  0  0  0  0  2  0  0  0  0  0  0
  -32.0380   20.3300  -14.8230 C   0  0  0  0  0  2  0  0  0  0  0  0
  -32.4470   20.9930  -17.2600 C   0  0  0  0  0  2  0  0  0  0  0  0
  -33.8850   22.9060  -16.5330 C   0  0  0  0  0  2  0  0  0  0  0  0
  -33.3870   22.3360  -14.1640 C   0  0  0  0  0  0  0  0  0  0  0  0
  -33.6330   23.3440  -13.2730 C   0  0  0  0  0  3  0  0  0  0  0  0
  -31.2270   21.8680  -13.0770 C   0  0  0  0  0  0  0  0  0  0  0  0
  -32.7020   23.6210  -12.2240 C   0  0  0  0  0  3  0  0  0  0  0  0
  -31.5430   22.9240  -12.1400 C   0  0  0  0  0  3  0  0  0  0  0  0
  -31.8310   22.6670  -16.1490 H   0  0  0  0  0  0  0  0  0  0  0  0
  -32.1670   23.0360  -17.7710 H   0  0  0  0  0  0  0  0  0  0  0  0
  1 12  2  0  0  0  0
  2 12  1  0  0  0  0
  3  9  1  0  0  0  0
  3 15  1  0  0  0  0
  4  8  1  6  0  0  0
  4  6  1  0  0  0  0
  4  7  1  0  0  0  0
  5  9  1  6  0  0  0
  5 10  1  0  0  0  0
  6  5  1  0  0  0  0
  7  2  1  0  0  0  0
  8  3  1  0  0  0  0
 10  2  1  0  0  0  0
 10 11  2  0  0  0  0
 11 13  1  0  0  0  0
 12 14  1  0  0  0  0
 13 14  2  0  0  0  0
 16  3  1  0  0  0  0
M  END
>  <MODEL>
7

>  <REMARK>
 VINA RESULT:    -6.626      8.655     10.818
 INTER + INTRA:          -6.626
 INTER:                  -6.626
 INTRA:                   0.000
 UNBOUND:                 0.000
  0 active torsions:
  status: ('A' for Active; 'I' for Inactive)

>  <TORSDO>
F 0

$$$$
./Citisina.pdbqt
 OpenBabel10282519553D

 16 18  0  0  1  0  0  0  0  0999 V2000
  -25.0520   20.3000   -8.0520 O   0  0  0  0  0  0  0  0  0  0  0  0
  -25.3360   21.7790   -9.7230 N   0  0  0  0  0  0  0  0  0  0  0  0
  -23.9230   21.6170  -12.3430 N   0  0  0  0  0  4  0  0  0  0  0  0
  -26.3200   20.9790  -11.9120 C   0  0  2  0  0  3  0  0  0  0  0  0
  -25.6110   23.3360  -11.6470 C   0  0  2  0  0  3  0  0  0  0  0  0
  -26.7510   22.4320  -12.1210 C   0  0  0  0  0  2  0  0  0  0  0  0
  -26.1220   20.7300  -10.4100 C   0  0  0  0  0  2  0  0  0  0  0  0
  -25.0550   20.6790  -12.7350 C   0  0  0  0  0  2  0  0  0  0  0  0
  -24.3530   23.0680  -12.5020 C   0  0  0  0  0  2  0  0  0  0  0  0
  -25.2810   23.0810  -10.1940 C   0  0  0  0  0  0  0  0  0  0  0  0
  -24.8170   24.0930   -9.4010 C   0  0  0  0  0  3  0  0  0  0  0  0
  -24.9670   21.4650   -8.3620 C   0  0  0  0  0  0  0  0  0  0  0  0
  -24.4520   23.8340   -8.0430 C   0  0  0  0  0  3  0  0  0  0  0  0
  -24.5090   22.5730   -7.5510 C   0  0  0  0  0  3  0  0  0  0  0  0
  -23.6940   21.4500  -11.3310 H   0  0  0  0  0  0  0  0  0  0  0  0
  -23.0740   21.4250  -12.9110 H   0  0  0  0  0  0  0  0  0  0  0  0
  2 12  1  0  0  0  0
  3 15  1  0  0  0  0
  4  8  1  6  0  0  0
  4  7  1  0  0  0  0
  5  9  1  6  0  0  0
  5 10  1  0  0  0  0
  6  4  1  0  0  0  0
  6  5  1  0  0  0  0
  7  2  1  0  0  0  0
  8  3  1  0  0  0  0
  9  3  1  0  0  0  0
 10  2  1  0  0  0  0
 10 11  2  0  0  0  0
 11 13  1  0  0  0  0
 12  1  2  0  0  0  0
 12 14  1  0  0  0  0
 13 14  2  0  0  0  0
 16  3  1  0  0  0  0
M  END
>  <MODEL>
8

>  <REMARK>
 VINA RESULT:    -6.515      3.671      5.294
 INTER + INTRA:          -6.515
 INTER:                  -6.515
 INTRA:                   0.000
 UNBOUND:                 0.000
  0 active torsions:
  status: ('A' for Active; 'I' for Inactive)

>  <TORSDO>
F 0

$$$$
./Citisina.pdbqt
 OpenBabel10282519553D

 16 18  0  0  1  0  0  0  0  0999 V2000
   -7.5250   39.1080    8.2820 O   0  0  0  0  0  0  0  0  0  0  0  0
   -7.4890   37.5850    9.9370 N   0  0  0  0  0  0  0  0  0  0  0  0
   -8.1950   34.7130    9.5660 N   0  0  0  0  0  4  0  0  0  0  0  0
   -5.8680   35.6490    9.7840 C   0  0  2  0  0  3  0  0  0  0  0  0
   -7.4410   35.8150   11.6880 C   0  0  2  0  0  3  0  0  0  0  0  0
   -5.9770   35.5820   11.3090 C   0  0  0  0  0  2  0  0  0  0  0  0
   -6.2500   37.0620    9.3190 C   0  0  0  0  0  2  0  0  0  0  0  0
   -6.7420   34.5570    9.1420 C   0  0  0  0  0  2  0  0  0  0  0  0
   -8.3140   34.6950   11.0820 C   0  0  0  0  0  2  0  0  0  0  0  0
   -7.9310   37.1500   11.1760 C   0  0  0  0  0  0  0  0  0  0  0  0
   -8.8850   37.8490   11.8620 C   0  0  0  0  0  3  0  0  0  0  0  0
   -7.9750   38.8210    9.3660 C   0  0  0  0  0  0  0  0  0  0  0  0
   -9.3870   39.0830   11.3450 C   0  0  0  0  0  3  0  0  0  0  0  0
   -8.9620   39.5400   10.1420 C   0  0  0  0  0  3  0  0  0  0  0  0
   -8.5390   35.6430    9.2190 H   0  0  0  0  0  0  0  0  0  0  0  0
   -8.7820   33.9650    9.1460 H   0  0  0  0  0  0  0  0  0  0  0  0
  1 12  2  0  0  0  0
  2 10  1  0  0  0  0
  3  9  1  0  0  0  0
  4  8  1  6  0  0  0
  4  6  1  0  0  0  0
  5  9  1  6  0  0  0
  6  5  1  0  0  0  0
  7  4  1  0  0  0  0
  7  2  1  0  0  0  0
  8  3  1  0  0  0  0
 10  5  1  0  0  0  0
 10 11  2  0  0  0  0
 12  2  1  0  0  0  0
 12 14  1  0  0  0  0
 13 11  1  0  0  0  0
 14 13  2  0  0  0  0
 15  3  1  0  0  0  0
 16  3  1  0  0  0  0
M  END
>  <MODEL>
9

>  <REMARK>
 VINA RESULT:    -6.448     27.587     28.794
 INTER + INTRA:          -6.448
 INTER:                  -6.448
 INTRA:                   0.000
 UNBOUND:                 0.000
  0 active torsions:
  status: ('A' for Active; 'I' for Inactive)

>  <TORSDO>
F 0

$$$$
./Citisina.pdbqt
 OpenBabel10282519553D

 16 18  0  0  1  0  0  0  0  0999 V2000
  -27.5080   21.0470   -8.2360 O   0  0  0  0  0  0  0  0  0  0  0  0
  -26.6020   22.9050   -7.3510 N   0  0  0  0  0  0  0  0  0  0  0  0
  -24.9770   22.9330   -4.8520 N   0  0  0  0  0  4  0  0  0  0  0  0
  -24.0840   23.0890   -7.2010 C   0  0  2  0  0  3  0  0  0  0  0  0
  -25.5240   24.8960   -6.3130 C   0  0  2  0  0  3  0  0  0  0  0  0
  -24.3050   24.6020   -7.1920 C   0  0  0  0  0  2  0  0  0  0  0  0
  -25.3000   22.4110   -7.8490 C   0  0  0  0  0  2  0  0  0  0  0  0
  -23.8160   22.5840   -5.7720 C   0  0  0  0  0  2  0  0  0  0  0  0
  -25.2400   24.4320   -4.8690 C   0  0  0  0  0  2  0  0  0  0  0  0
  -26.7520   24.1790   -6.8270 C   0  0  0  0  0  0  0  0  0  0  0  0
  -27.9940   24.7260   -6.6600 C   0  0  0  0  0  3  0  0  0  0  0  0
  -27.7490   22.1460   -7.7950 C   0  0  0  0  0  0  0  0  0  0  0  0
  -29.1570   24.0180   -7.0960 C   0  0  0  0  0  3  0  0  0  0  0  0
  -29.0400   22.7770   -7.6250 C   0  0  0  0  0  3  0  0  0  0  0  0
  -25.8360   22.4440   -5.2090 H   0  0  0  0  0  0  0  0  0  0  0  0
  -24.7880   22.6070   -3.8830 H   0  0  0  0  0  0  0  0  0  0  0  0
  1 12  2  0  0  0  0
  2 10  1  0  0  0  0
  3 16  1  0  0  0  0
  4  7  1  1  0  0  0
  4  6  1  0  0  0  0
  4  8  1  0  0  0  0
  5  6  1  6  0  0  0
  5  9  1  0  0  0  0
  7  2  1  0  0  0  0
  8  3  1  0  0  0  0
  9  3  1  0  0  0  0
 10 11  2  0  0  0  0
 10  5  1  0  0  0  0
 12 14  1  0  0  0  0
 12  2  1  0  0  0  0
 13 11  1  0  0  0  0
 14 13  2  0  0  0  0
 15  3  1  0  0  0  0
M  END
>  <MODEL>
10

>  <REMARK>
 VINA RESULT:    -6.304      1.803      2.780
 INTER + INTRA:          -6.304
 INTER:                  -6.304
 INTRA:                   0.000
 UNBOUND:                 0.000
  0 active torsions:
  status: ('A' for Active; 'I' for Inactive)

>  <TORSDO>
F 0

$$$$
./Citisina.pdbqt
 OpenBabel10282519553D

 16 18  0  0  1  0  0  0  0  0999 V2000
  -40.5180   32.1980    5.5720 O   0  0  0  0  0  0  0  0  0  0  0  0
  -41.3120   32.7770    3.5490 N   0  0  0  0  0  0  0  0  0  0  0  0
  -42.9590   30.9780    1.8340 N   0  0  0  0  0  4  0  0  0  0  0  0
  -43.8150   32.9080    3.2070 C   0  0  2  0  0  3  0  0  0  0  0  0
  -42.2720   33.3340    1.3190 C   0  0  2  0  0  3  0  0  0  0  0  0
  -43.4970   33.8720    2.0630 C   0  0  0  0  0  2  0  0  0  0  0  0
  -42.6380   32.9000    4.1940 C   0  0  0  0  0  2  0  0  0  0  0  0
  -44.1300   31.5080    2.6490 C   0  0  0  0  0  2  0  0  0  0  0  0
  -42.6000   31.9500    0.7200 C   0  0  0  0  0  2  0  0  0  0  0  0
  -41.0870   33.1980    2.2480 C   0  0  0  0  0  0  0  0  0  0  0  0
  -39.8140   33.3640    1.7770 C   0  0  0  0  0  3  0  0  0  0  0  0
  -40.2120   32.5640    4.4620 C   0  0  0  0  0  0  0  0  0  0  0  0
  -38.6940   33.1780    2.6460 C   0  0  0  0  0  3  0  0  0  0  0  0
  -38.8850   32.7810    3.9270 C   0  0  0  0  0  3  0  0  0  0  0  0
  -42.1290   30.8890    2.4740 H   0  0  0  0  0  0  0  0  0  0  0  0
  -43.1790   30.0410    1.4430 H   0  0  0  0  0  0  0  0  0  0  0  0
  2  7  1  0  0  0  0
  2 12  1  0  0  0  0
  3 15  1  0  0  0  0
  3  8  1  0  0  0  0
  4  6  1  6  0  0  0
  4  7  1  0  0  0  0
  5  9  1  1  0  0  0
  5  6  1  0  0  0  0
  5 10  1  0  0  0  0
  8  4  1  0  0  0  0
  9  3  1  0  0  0  0
 10  2  1  0  0  0  0
 11 10  2  0  0  0  0
 11 13  1  0  0  0  0
 12  1  2  0  0  0  0
 13 14  2  0  0  0  0
 14 12  1  0  0  0  0
 16  3  1  0  0  0  0
M  END
>  <MODEL>
11

>  <REMARK>
 VINA RESULT:    -6.257     18.924     20.662
 INTER + INTRA:          -6.257
 INTER:                  -6.257
 INTRA:                   0.000
 UNBOUND:                 0.000
  0 active torsions:
  status: ('A' for Active; 'I' for Inactive)

>  <TORSDO>
F 0

$$$$
./Citisina.pdbqt
 OpenBabel10282519553D

 16 18  0  0  1  0  0  0  0  0999 V2000
  -44.1460   31.0200    4.1310 O   0  0  0  0  0  0  0  0  0  0  0  0
  -42.4340   31.9560    3.0130 N   0  0  0  0  0  0  0  0  0  0  0  0
  -40.0430   33.1500    4.3350 N   0  0  0  0  0  4  0  0  0  0  0  0
  -40.1380   30.9090    3.1900 C   0  0  2  0  0  3  0  0  0  0  0  0
  -40.4710   32.9760    1.8700 C   0  0  2  0  0  3  0  0  0  0  0  0
  -39.8510   31.5770    1.8440 C   0  0  0  0  0  2  0  0  0  0  0  0
  -41.6560   30.7430    3.3510 C   0  0  0  0  0  2  0  0  0  0  0  0
  -39.5070   31.7260    4.3320 C   0  0  0  0  0  2  0  0  0  0  0  0
  -39.8070   33.8120    2.9850 C   0  0  0  0  0  2  0  0  0  0  0  0
  -41.9590   32.9090    2.1270 C   0  0  0  0  0  0  0  0  0  0  0  0
  -42.7970   33.8480    1.5940 C   0  0  0  0  0  3  0  0  0  0  0  0
  -43.8380   31.8880    3.3490 C   0  0  0  0  0  0  0  0  0  0  0  0
  -44.1970   33.8140    1.8870 C   0  0  0  0  0  3  0  0  0  0  0  0
  -44.6910   32.8840    2.7390 C   0  0  0  0  0  3  0  0  0  0  0  0
  -41.0790   33.1090    4.5050 H   0  0  0  0  0  0  0  0  0  0  0  0
  -39.6030   33.7060    5.0950 H   0  0  0  0  0  0  0  0  0  0  0  0
  2 12  1  0  0  0  0
  2  7  1  0  0  0  0
  3 15  1  0  0  0  0
  3 16  1  0  0  0  0
  4  6  1  6  0  0  0
  4  7  1  0  0  0  0
  4  8  1  0  0  0  0
  5  6  1  1  0  0  0
  5 10  1  0  0  0  0
  5  9  1  0  0  0  0
  8  3  1  0  0  0  0
  9  3  1  0  0  0  0
 10  2  1  0  0  0  0
 11 13  1  0  0  0  0
 11 10  2  0  0  0  0
 12  1  2  0  0  0  0
 13 14  2  0  0  0  0
 14 12  1  0  0  0  0
M  END
>  <MODEL>
12

>  <REMARK>
 VINA RESULT:    -6.176     18.728     20.440
 INTER + INTRA:          -6.176
 INTER:                  -6.176
 INTRA:                   0.000
 UNBOUND:                 0.000
  0 active torsions:
  status: ('A' for Active; 'I' for Inactive)

>  <TORSDO>
F 0

$$$$
./Citisina.pdbqt
 OpenBabel10282519553D

 16 18  0  0  1  0  0  0  0  0999 V2000
  -32.0610   23.6930  -12.3700 O   0  0  0  0  0  0  0  0  0  0  0  0
  -33.0290   22.4040  -13.9390 N   0  0  0  0  0  0  0  0  0  0  0  0
  -32.2660   22.4400  -16.8210 N   0  0  0  0  0  4  0  0  0  0  0  0
  -31.6260   20.6760  -15.1410 C   0  0  2  0  0  3  0  0  0  0  0  0
  -34.0060   20.9910  -15.7430 C   0  0  2  0  0  3  0  0  0  0  0  0
  -32.9440   19.9450  -15.3970 C   0  0  0  0  0  2  0  0  0  0  0  0
  -31.7930   21.5920  -13.9190 C   0  0  0  0  0  2  0  0  0  0  0  0
  -31.1930   21.4450  -16.4020 C   0  0  0  0  0  2  0  0  0  0  0  0
  -33.5960   21.7330  -17.0340 C   0  0  0  0  0  2  0  0  0  0  0  0
  -34.1620   21.9990  -14.6270 C   0  0  0  0  0  0  0  0  0  0  0  0
  -35.3720   22.5890  -14.3890 C   0  0  0  0  0  3  0  0  0  0  0  0
  -33.1070   23.4140  -12.9080 C   0  0  0  0  0  0  0  0  0  0  0  0
  -35.5020   23.5840  -13.3700 C   0  0  0  0  0  3  0  0  0  0  0  0
  -34.4140   23.9890  -12.6720 C   0  0  0  0  0  3  0  0  0  0  0  0
  -32.3840   23.1390  -16.0450 H   0  0  0  0  0  0  0  0  0  0  0  0
  -31.9800   22.9460  -17.6820 H   0  0  0  0  0  0  0  0  0  0  0  0
  2  7  1  0  0  0  0
  2 12  1  0  0  0  0
  3  8  1  0  0  0  0
  3 15  1  0  0  0  0
  4  8  1  6  0  0  0
  4  7  1  0  0  0  0
  5  9  1  6  0  0  0
  5  6  1  0  0  0  0
  5 10  1  0  0  0  0
  6  4  1  0  0  0  0
  9  3  1  0  0  0  0
 10 11  2  0  0  0  0
 10  2  1  0  0  0  0
 11 13  1  0  0  0  0
 12 14  1  0  0  0  0
 12  1  2  0  0  0  0
 13 14  2  0  0  0  0
 16  3  1  0  0  0  0
M  END
>  <MODEL>
13

>  <REMARK>
 VINA RESULT:    -6.065      9.323     10.773
 INTER + INTRA:          -6.065
 INTER:                  -6.065
 INTRA:                   0.000
 UNBOUND:                 0.000
  0 active torsions:
  status: ('A' for Active; 'I' for Inactive)

>  <TORSDO>
F 0

$$$$
./Citisina.pdbqt
 OpenBabel10282519553D

 16 18  0  0  1  0  0  0  0  0999 V2000
  -34.0140   23.6790  -15.2400 O   0  0  0  0  0  0  0  0  0  0  0  0
  -32.9770   23.3120  -13.2790 N   0  0  0  0  0  0  0  0  0  0  0  0
  -31.3170   25.3490  -11.8710 N   0  0  0  0  0  4  0  0  0  0  0  0
  -33.6630   24.6690  -11.2570 C   0  0  2  0  0  3  0  0  0  0  0  0
  -31.8240   23.0210  -11.0900 C   0  0  2  0  0  3  0  0  0  0  0  0
  -33.1160   23.5060  -10.4290 C   0  0  0  0  0  2  0  0  0  0  0  0
  -34.0220   24.1560  -12.6600 C   0  0  0  0  0  2  0  0  0  0  0  0
  -32.6430   25.8210  -11.2910 C   0  0  0  0  0  2  0  0  0  0  0  0
  -30.7830   24.1610  -11.0840 C   0  0  0  0  0  2  0  0  0  0  0  0
  -32.0710   22.5890  -12.5180 C   0  0  0  0  0  0  0  0  0  0  0  0
  -31.3250   21.5920  -13.0800 C   0  0  0  0  0  3  0  0  0  0  0  0
  -33.2040   22.9880  -14.6690 C   0  0  0  0  0  0  0  0  0  0  0  0
  -31.5240   21.2260  -14.4480 C   0  0  0  0  0  3  0  0  0  0  0  0
  -32.4130   21.9060  -15.2120 C   0  0  0  0  0  3  0  0  0  0  0  0
  -31.4850   25.0410  -12.8610 H   0  0  0  0  0  0  0  0  0  0  0  0
  -30.6230   26.1230  -11.8770 H   0  0  0  0  0  0  0  0  0  0  0  0
  1 12  2  0  0  0  0
  2  7  1  0  0  0  0
  2 10  1  0  0  0  0
  3  8  1  0  0  0  0
  3  9  1  0  0  0  0
  4  7  1  6  0  0  0
  4  6  1  0  0  0  0
  5  9  1  6  0  0  0
  5  6  1  0  0  0  0
  8  4  1  0  0  0  0
 10  5  1  0  0  0  0
 11 10  2  0  0  0  0
 12  2  1  0  0  0  0
 13 11  1  0  0  0  0
 14 12  1  0  0  0  0
 14 13  2  0  0  0  0
 15  3  1  0  0  0  0
 16  3  1  0  0  0  0
M  END
>  <MODEL>
14

>  <REMARK>
 VINA RESULT:    -6.033      7.188      9.031
 INTER + INTRA:          -6.033
 INTER:                  -6.033
 INTRA:                   0.000
 UNBOUND:                 0.000
  0 active torsions:
  status: ('A' for Active; 'I' for Inactive)

>  <TORSDO>
F 0

$$$$
./Citisina.pdbqt
 OpenBabel10282519553D

 16 18  0  0  1  0  0  0  0  0999 V2000
  -29.6470   22.8760   -8.6190 O   0  0  0  0  0  0  0  0  0  0  0  0
  -27.4460   22.9740   -8.1690 N   0  0  0  0  0  0  0  0  0  0  0  0
  -25.6140   20.6260   -8.3170 N   0  0  0  0  0  4  0  0  0  0  0  0
  -25.7940   22.4740  -10.0190 C   0  0  2  0  0  3  0  0  0  0  0  0
  -24.9930   22.9840   -7.7330 C   0  0  2  0  0  3  0  0  0  0  0  0
  -24.8060   23.3200   -9.2140 C   0  0  0  0  0  2  0  0  0  0  0  0
  -27.2250   22.8730   -9.6290 C   0  0  0  0  0  2  0  0  0  0  0  0
  -25.5150   20.9770   -9.7950 C   0  0  0  0  0  2  0  0  0  0  0  0
  -24.6700   21.4930   -7.4980 C   0  0  0  0  0  2  0  0  0  0  0  0
  -26.4130   23.2540   -7.2880 C   0  0  0  0  0  0  0  0  0  0  0  0
  -26.6760   23.6440   -6.0050 C   0  0  0  0  0  3  0  0  0  0  0  0
  -28.8250   23.1480   -7.7760 C   0  0  0  0  0  0  0  0  0  0  0  0
  -28.0240   23.8430   -5.5730 C   0  0  0  0  0  3  0  0  0  0  0  0
  -29.0530   23.5900   -6.4180 C   0  0  0  0  0  3  0  0  0  0  0  0
  -26.5980   20.8190   -8.0010 H   0  0  0  0  0  0  0  0  0  0  0  0
  -25.4080   19.6190   -8.1650 H   0  0  0  0  0  0  0  0  0  0  0  0
  1 12  2  0  0  0  0
  2 12  1  0  0  0  0
  2 10  1  0  0  0  0
  3 16  1  0  0  0  0
  3 15  1  0  0  0  0
  3  9  1  0  0  0  0
  4  8  1  1  0  0  0
  4  7  1  0  0  0  0
  4  6  1  0  0  0  0
  5  6  1  6  0  0  0
  5  9  1  0  0  0  0
  5 10  1  0  0  0  0
  7  2  1  0  0  0  0
  8  3  1  0  0  0  0
 10 11  2  0  0  0  0
 11 13  1  0  0  0  0
 12 14  1  0  0  0  0
 14 13  2  0  0  0  0
M  END
>  <MODEL>
15

>  <REMARK>
 VINA RESULT:    -5.999      2.006      3.309
 INTER + INTRA:          -5.999
 INTER:                  -5.999
 INTRA:                   0.000
 UNBOUND:                 0.000
  0 active torsions:
  status: ('A' for Active; 'I' for Inactive)

>  <TORSDO>
F 0

$$$$
./Citisina.pdbqt
 OpenBabel10282519553D

 16 18  0  0  1  0  0  0  0  0999 V2000
  -23.6190   26.0720   -9.0650 O   0  0  0  0  0  0  0  0  0  0  0  0
  -24.8690   24.2910   -8.4950 N   0  0  0  0  0  0  0  0  0  0  0  0
  -23.9320   22.1170   -6.6830 N   0  0  0  0  0  4  0  0  0  0  0  0
  -25.5170   23.9760   -6.0700 C   0  0  2  0  0  3  0  0  0  0  0  0
  -26.1850   22.3050   -7.7700 C   0  0  2  0  0  3  0  0  0  0  0  0
  -26.6930   23.1580   -6.6060 C   0  0  0  0  0  2  0  0  0  0  0  0
  -25.0310   24.9310   -7.1710 C   0  0  0  0  0  2  0  0  0  0  0  0
  -24.4050   23.0370   -5.5670 C   0  0  0  0  0  2  0  0  0  0  0  0
  -25.1010   21.3310   -7.2580 C   0  0  0  0  0  2  0  0  0  0  0  0
  -25.5920   23.1680   -8.8610 C   0  0  0  0  0  0  0  0  0  0  0  0
  -25.6630   22.7770  -10.1690 C   0  0  0  0  0  3  0  0  0  0  0  0
  -24.2230   25.1160   -9.4910 C   0  0  0  0  0  0  0  0  0  0  0  0
  -25.0520   23.5680  -11.1920 C   0  0  0  0  0  3  0  0  0  0  0  0
  -24.3500   24.6790  -10.8640 C   0  0  0  0  0  3  0  0  0  0  0  0
  -23.5270   22.7120   -7.4480 H   0  0  0  0  0  0  0  0  0  0  0  0
  -23.1940   21.4720   -6.3380 H   0  0  0  0  0  0  0  0  0  0  0  0
  2  7  1  0  0  0  0
  3 16  1  0  0  0  0
  3  8  1  0  0  0  0
  4  7  1  6  0  0  0
  4  8  1  0  0  0  0
  5  9  1  1  0  0  0
  5  6  1  0  0  0  0
  6  4  1  0  0  0  0
  9  3  1  0  0  0  0
 10  2  1  0  0  0  0
 10  5  1  0  0  0  0
 11 10  2  0  0  0  0
 12  1  2  0  0  0  0
 12  2  1  0  0  0  0
 13 14  2  0  0  0  0
 13 11  1  0  0  0  0
 14 12  1  0  0  0  0
 15  3  1  0  0  0  0
M  END
>  <MODEL>
16

>  <REMARK>
 VINA RESULT:    -5.995      2.383      3.698
 INTER + INTRA:          -5.995
 INTER:                  -5.995
 INTRA:                   0.000
 UNBOUND:                 0.000
  0 active torsions:
  status: ('A' for Active; 'I' for Inactive)

>  <TORSDO>
F 0

$$$$
./Citisina.pdbqt
 OpenBabel10282519553D

 16 18  0  0  1  0  0  0  0  0999 V2000
  -37.7510   41.5160   12.2500 O   0  0  0  0  0  0  0  0  0  0  0  0
  -36.4870   40.4350   10.7360 N   0  0  0  0  0  0  0  0  0  0  0  0
  -33.6410   39.6720   11.1880 N   0  0  0  0  0  4  0  0  0  0  0  0
  -35.6240   38.1220   11.2880 C   0  0  2  0  0  3  0  0  0  0  0  0
  -35.0180   39.2040    9.1450 C   0  0  2  0  0  3  0  0  0  0  0  0
  -35.5430   37.9120    9.7750 C   0  0  0  0  0  2  0  0  0  0  0  0
  -36.6430   39.2320   11.5830 C   0  0  0  0  0  2  0  0  0  0  0  0
  -34.2270   38.4350   11.8540 C   0  0  0  0  0  2  0  0  0  0  0  0
  -33.5980   39.4950    9.6780 C   0  0  0  0  0  2  0  0  0  0  0  0
  -35.9150   40.3750    9.4750 C   0  0  0  0  0  0  0  0  0  0  0  0
  -36.0550   41.4110    8.5940 C   0  0  0  0  0  3  0  0  0  0  0  0
  -37.2990   41.5640   11.1300 C   0  0  0  0  0  0  0  0  0  0  0  0
  -36.8590   42.5430    8.9340 C   0  0  0  0  0  3  0  0  0  0  0  0
  -37.4420   42.6220   10.1540 C   0  0  0  0  0  3  0  0  0  0  0  0
  -34.2660   40.4880   11.4080 H   0  0  0  0  0  0  0  0  0  0  0  0
  -32.6910   39.8720   11.5580 H   0  0  0  0  0  0  0  0  0  0  0  0
  2 12  1  0  0  0  0
  2  7  1  0  0  0  0
  3 15  1  0  0  0  0
  3 16  1  0  0  0  0
  3  8  1  0  0  0  0
  4  6  1  6  0  0  0
  4  7  1  0  0  0  0
  4  8  1  0  0  0  0
  5 10  1  0  0  0  0
  5  9  1  1  0  0  0
  5  6  1  0  0  0  0
  9  3  1  0  0  0  0
 10  2  1  0  0  0  0
 11 13  1  0  0  0  0
 11 10  2  0  0  0  0
 12  1  2  0  0  0  0
 13 14  2  0  0  0  0
 14 12  1  0  0  0  0
M  END
>  <MODEL>
17

>  <REMARK>
 VINA RESULT:    -5.990     24.460     25.873
 INTER + INTRA:          -5.990
 INTER:                  -5.990
 INTRA:                   0.000
 UNBOUND:                 0.000
  0 active torsions:
  status: ('A' for Active; 'I' for Inactive)

>  <TORSDO>
F 0

$$$$
./Citisina.pdbqt
 OpenBabel10282519553D

 16 18  0  0  1  0  0  0  0  0999 V2000
  -40.3060   33.3210    1.1340 O   0  0  0  0  0  0  0  0  0  0  0  0
  -41.6660   33.0330    2.9020 N   0  0  0  0  0  0  0  0  0  0  0  0
  -41.7360   30.5560    4.5590 N   0  0  0  0  0  4  0  0  0  0  0  0
  -40.6460   32.7340    5.1970 C   0  0  2  0  0  3  0  0  0  0  0  0
  -43.1010   32.6320    4.8980 C   0  0  2  0  0  3  0  0  0  0  0  0
  -41.9800   33.2520    5.7360 C   0  0  0  0  0  2  0  0  0  0  0  0
  -40.4700   33.2220    3.7510 C   0  0  0  0  0  2  0  0  0  0  0  0
  -40.5850   31.2010    5.3170 C   0  0  0  0  0  2  0  0  0  0  0  0
  -43.0700   31.0960    5.0530 C   0  0  0  0  0  2  0  0  0  0  0  0
  -42.9440   32.9810    3.4350 C   0  0  0  0  0  0  0  0  0  0  0  0
  -44.0430   33.1160    2.6330 C   0  0  0  0  0  3  0  0  0  0  0  0
  -41.4580   33.2950    1.4960 C   0  0  0  0  0  0  0  0  0  0  0  0
  -43.8880   33.3900    1.2380 C   0  0  0  0  0  3  0  0  0  0  0  0
  -42.6500   33.4600    0.6920 C   0  0  0  0  0  3  0  0  0  0  0  0
  -41.6370   30.8020    3.5420 H   0  0  0  0  0  0  0  0  0  0  0  0
  -41.7040   29.5210    4.6540 H   0  0  0  0  0  0  0  0  0  0  0  0
  1 12  2  0  0  0  0
  2 10  1  0  0  0  0
  2  7  1  0  0  0  0
  3 16  1  0  0  0  0
  3  9  1  0  0  0  0
  3  8  1  0  0  0  0
  4  7  1  6  0  0  0
  4  8  1  0  0  0  0
  4  6  1  0  0  0  0
  5  9  1  6  0  0  0
  5  6  1  0  0  0  0
 10  5  1  0  0  0  0
 11 10  2  0  0  0  0
 12  2  1  0  0  0  0
 13 11  1  0  0  0  0
 14 13  2  0  0  0  0
 14 12  1  0  0  0  0
 15  3  1  0  0  0  0
M  END
>  <MODEL>
18

>  <REMARK>
 VINA RESULT:    -5.989     20.007     21.141
 INTER + INTRA:          -5.989
 INTER:                  -5.989
 INTRA:                   0.000
 UNBOUND:                 0.000
  0 active torsions:
  status: ('A' for Active; 'I' for Inactive)

>  <TORSDO>
F 0

$$$$
./Citisina.pdbqt
 OpenBabel10282519553D

 16 18  0  0  1  0  0  0  0  0999 V2000
  -23.2250    2.9830   14.2240 O   0  0  0  0  0  0  0  0  0  0  0  0
  -22.1430    1.3690   13.0920 N   0  0  0  0  0  0  0  0  0  0  0  0
  -19.5870    0.1330   13.9990 N   0  0  0  0  0  4  0  0  0  0  0  0
  -21.8740   -0.9070   14.1610 C   0  0  2  0  0  3  0  0  0  0  0  0
  -20.8900   -0.4470   11.9370 C   0  0  2  0  0  3  0  0  0  0  0  0
  -21.7410   -1.4400   12.7330 C   0  0  0  0  0  2  0  0  0  0  0  0
  -22.6290    0.4300   14.1260 C   0  0  0  0  0  2  0  0  0  0  0  0
  -20.4860   -0.7860   14.8130 C   0  0  0  0  0  2  0  0  0  0  0  0
  -19.4820   -0.3590   12.5630 C   0  0  0  0  0  2  0  0  0  0  0  0
  -21.5150    0.9300   11.9370 C   0  0  0  0  0  0  0  0  0  0  0  0
  -21.3520    1.7660   10.8690 C   0  0  0  0  0  3  0  0  0  0  0  0
  -22.6990    2.7010   13.1740 C   0  0  0  0  0  0  0  0  0  0  0  0
  -21.8960    3.0870   10.8970 C   0  0  0  0  0  3  0  0  0  0  0  0
  -22.5280    3.5390   12.0070 C   0  0  0  0  0  3  0  0  0  0  0  0
  -20.0200    1.0900   13.9900 H   0  0  0  0  0  0  0  0  0  0  0  0
  -18.6440    0.2000   14.4310 H   0  0  0  0  0  0  0  0  0  0  0  0
  2 12  1  0  0  0  0
  2  7  1  0  0  0  0
  3 16  1  0  0  0  0
  3  8  1  0  0  0  0
  4  6  1  6  0  0  0
  4  8  1  0  0  0  0
  5 10  1  0  0  0  0
  5  9  1  1  0  0  0
  5  6  1  0  0  0  0
  7  4  1  0  0  0  0
  9  3  1  0  0  0  0
 10  2  1  0  0  0  0
 11 13  1  0  0  0  0
 11 10  2  0  0  0  0
 12  1  2  0  0  0  0
 13 14  2  0  0  0  0
 14 12  1  0  0  0  0
 15  3  1  0  0  0  0
M  END
>  <MODEL>
19

>  <REMARK>
 VINA RESULT:    -5.822     29.588     30.660
 INTER + INTRA:          -5.822
 INTER:                  -5.822
 INTRA:                   0.000
 UNBOUND:                 0.000
  0 active torsions:
  status: ('A' for Active; 'I' for Inactive)

>  <TORSDO>
F 0

$$$$
./Citisina.pdbqt
 OpenBabel10282519553D

 16 18  0  0  1  0  0  0  0  0999 V2000
  -42.7980   29.8930    0.9900 O   0  0  0  0  0  0  0  0  0  0  0  0
  -41.6820   31.5820    1.9690 N   0  0  0  0  0  0  0  0  0  0  0  0
  -41.5060   31.9680    4.9200 N   0  0  0  0  0  4  0  0  0  0  0  0
  -39.6910   31.0490    3.4350 C   0  0  2  0  0  3  0  0  0  0  0  0
  -40.4410   33.3900    3.1500 C   0  0  2  0  0  3  0  0  0  0  0  0
  -39.2190   32.4690    3.1210 C   0  0  0  0  0  2  0  0  0  0  0  0
  -40.6490   30.5860    2.3280 C   0  0  0  0  0  2  0  0  0  0  0  0
  -40.3340   31.0010    4.8330 C   0  0  0  0  0  2  0  0  0  0  0  0
  -41.0610   33.3790    4.5640 C   0  0  0  0  0  2  0  0  0  0  0  0
  -41.4860   32.9420    2.1530 C   0  0  0  0  0  0  0  0  0  0  0  0
  -42.3010   33.8550    1.5450 C   0  0  0  0  0  3  0  0  0  0  0  0
  -42.7120   31.0950    1.0800 C   0  0  0  0  0  0  0  0  0  0  0  0
  -43.3250   33.4210    0.6460 C   0  0  0  0  0  3  0  0  0  0  0  0
  -43.5310   32.0990    0.4360 C   0  0  0  0  0  3  0  0  0  0  0  0
  -42.2320   31.6650    4.2230 H   0  0  0  0  0  0  0  0  0  0  0  0
  -41.9280   31.9480    5.8690 H   0  0  0  0  0  0  0  0  0  0  0  0
  1 12  2  0  0  0  0
  2 10  1  0  0  0  0
  2  7  1  0  0  0  0
  3 16  1  0  0  0  0
  4  7  1  6  0  0  0
  4  8  1  0  0  0  0
  5  6  1  1  0  0  0
  5  9  1  0  0  0  0
  6  4  1  0  0  0  0
  8  3  1  0  0  0  0
  9  3  1  0  0  0  0
 10  5  1  0  0  0  0
 11 10  2  0  0  0  0
 12  2  1  0  0  0  0
 13 11  1  0  0  0  0
 14 13  2  0  0  0  0
 14 12  1  0  0  0  0
 15  3  1  0  0  0  0
M  END
>  <MODEL>
20

>  <REMARK>
 VINA RESULT:    -5.794     18.748     19.968
 INTER + INTRA:          -5.794
 INTER:                  -5.794
 INTRA:                   0.000
 UNBOUND:                 0.000
  0 active torsions:
  status: ('A' for Active; 'I' for Inactive)

>  <TORSDO>
F 0

$$$$
