./Coptisina.pdbqt
 OpenBabel10282519553D

 24 29  0  0  1  0  0  0  0  0999 V2000
  -28.9700   21.7910  -13.1190 O   0  0  0  0  0  0  0  0  0  0  0  0
  -28.2990   23.6760  -11.8670 O   0  0  0  0  0  0  0  0  0  0  0  0
  -38.8600   23.2560  -13.2120 O   0  0  0  0  0  0  0  0  0  0  0  0
  -39.5610   22.0700  -15.1320 O   0  0  0  0  0  0  0  0  0  0  0  0
  -34.6680   23.7370  -12.1900 N   0  0  0  0  0  0  0  0  0  0  0  0
  -34.2020   24.5050  -11.0090 C   0  0  0  0  0  2  0  0  0  0  0  0
  -33.7090   23.1400  -13.0270 C   0  0  2  0  0  3  0  0  0  0  0  0
  -32.9510   25.3100  -11.3720 C   0  0  0  0  0  2  0  0  0  0  0  0
  -32.3020   23.2880  -12.6610 C   0  0  0  0  0  0  0  0  0  0  0  0
  -31.8980   24.3800  -11.8850 C   0  0  0  0  0  0  0  0  0  0  0  0
  -36.4400   22.9270  -13.5750 C   0  0  0  0  0  0  0  0  0  0  0  0
  -35.9770   23.6340  -12.4440 C   0  0  0  0  0  3  0  0  0  0  0  0
  -34.1280   22.4680  -14.1520 C   0  0  0  0  0  3  0  0  0  0  0  0
  -35.5040   22.3240  -14.4740 C   0  0  0  0  0  0  0  0  0  0  0  0
  -31.3660   22.3270  -13.1180 C   0  0  0  0  0  3  0  0  0  0  0  0
  -30.5480   24.6140  -11.5670 C   0  0  0  0  0  3  0  0  0  0  0  0
  -37.7890   22.7750  -13.9010 C   0  0  0  0  0  0  0  0  0  0  0  0
  -30.0550   22.5560  -12.7960 C   0  0  0  0  0  0  0  0  0  0  0  0
  -29.6470   23.6900  -12.0390 C   0  0  0  0  0  0  0  0  0  0  0  0
  -35.9440   21.6230  -15.6180 C   0  0  0  0  0  3  0  0  0  0  0  0
  -38.1980   22.0730  -15.0400 C   0  0  0  0  0  0  0  0  0  0  0  0
  -37.2920   21.4860  -15.9200 C   0  0  0  0  0  3  0  0  0  0  0  0
  -27.8310   22.4790  -12.5450 C   0  0  0  0  0  2  0  0  0  0  0  0
  -40.0230   22.8180  -13.9770 C   0  0  0  0  0  2  0  0  0  0  0  0
  1 18  1  0  0  0  0
  1 23  1  0  0  0  0
  4 21  1  0  0  0  0
  4 24  1  0  0  0  0
  5  6  1  0  0  0  0
  7 13  1  6  0  0  0
  7  9  1  0  0  0  0
  7  5  1  0  0  0  0
  8  6  1  0  0  0  0
  9 10  1  0  0  0  0
 10 16  2  0  0  0  0
 10  8  1  0  0  0  0
 11 12  2  0  0  0  0
 12  5  1  0  0  0  0
 14 13  2  0  0  0  0
 14 11  1  0  0  0  0
 15 18  1  0  0  0  0
 15  9  2  0  0  0  0
 17 11  1  0  0  0  0
 17  3  1  0  0  0  0
 18 19  2  0  0  0  0
 19  2  1  0  0  0  0
 19 16  1  0  0  0  0
 20 14  1  0  0  0  0
 21 17  2  0  0  0  0
 22 20  2  0  0  0  0
 22 21  1  0  0  0  0
 23  2  1  0  0  0  0
 24  3  1  0  0  0  0
M  END
>  <MODEL>
1

>  <REMARK>
 VINA RESULT:   -10.819      0.000      0.000
 INTER + INTRA:         -10.819
 INTER:                 -10.819
 INTRA:                   0.000
 UNBOUND:                 0.000
  0 active torsions:
  status: ('A' for Active; 'I' for Inactive)

>  <TORSDO>
F 0

$$$$
./Coptisina.pdbqt
 OpenBabel10282519553D

 24 29  0  0  1  0  0  0  0  0999 V2000
  -39.2000   23.2950  -13.3190 O   0  0  0  0  0  0  0  0  0  0  0  0
  -39.6830   22.3770  -15.4400 O   0  0  0  0  0  0  0  0  0  0  0  0
  -29.2950   21.9570  -13.1120 O   0  0  0  0  0  0  0  0  0  0  0  0
  -28.5620   23.6000  -11.5800 O   0  0  0  0  0  0  0  0  0  0  0  0
  -33.4290   21.6790  -14.4080 N   0  0  0  0  0  0  0  0  0  0  0  0
  -33.9060   20.6780  -15.3940 C   0  0  0  0  0  2  0  0  0  0  0  0
  -34.3540   22.5900  -13.8710 C   0  0  2  0  0  3  0  0  0  0  0  0
  -34.9260   21.3210  -16.3370 C   0  0  0  0  0  2  0  0  0  0  0  0
  -35.7480   22.4720  -14.2950 C   0  0  0  0  0  0  0  0  0  0  0  0
  -36.0490   21.8930  -15.5330 C   0  0  0  0  0  0  0  0  0  0  0  0
  -31.6590   22.6660  -13.1390 C   0  0  0  0  0  0  0  0  0  0  0  0
  -32.1380   21.7070  -14.0580 C   0  0  0  0  0  3  0  0  0  0  0  0
  -33.9130   23.5540  -12.9940 C   0  0  0  0  0  3  0  0  0  0  0  0
  -32.5560   23.6330  -12.5830 C   0  0  0  0  0  0  0  0  0  0  0  0
  -36.7710   22.9670  -13.4490 C   0  0  0  0  0  3  0  0  0  0  0  0
  -37.3640   21.8230  -16.0260 C   0  0  0  0  0  3  0  0  0  0  0  0
  -30.3290   22.7530  -12.7260 C   0  0  0  0  0  0  0  0  0  0  0  0
  -38.0490   22.8860  -13.9320 C   0  0  0  0  0  0  0  0  0  0  0  0
  -38.3450   22.3310  -15.2080 C   0  0  0  0  0  0  0  0  0  0  0  0
  -32.0960   24.6100  -11.6720 C   0  0  0  0  0  3  0  0  0  0  0  0
  -29.9000   23.7290  -11.8190 C   0  0  0  0  0  0  0  0  0  0  0  0
  -30.7680   24.6740  -11.2760 C   0  0  0  0  0  3  0  0  0  0  0  0
  -40.2630   22.9880  -14.2560 C   0  0  0  0  0  2  0  0  0  0  0  0
  -28.1360   22.4740  -12.3890 C   0  0  0  0  0  2  0  0  0  0  0  0
  2 19  1  0  0  0  0
  2 23  1  0  0  0  0
  3 17  1  0  0  0  0
  3 24  1  0  0  0  0
  5 12  1  0  0  0  0
  5  7  1  0  0  0  0
  6  5  1  0  0  0  0
  7 13  1  6  0  0  0
  8 10  1  0  0  0  0
  8  6  1  0  0  0  0
  9  7  1  0  0  0  0
  9 15  1  0  0  0  0
 10  9  2  0  0  0  0
 11 17  1  0  0  0  0
 11 14  1  0  0  0  0
 12 11  2  0  0  0  0
 13 14  2  0  0  0  0
 14 20  1  0  0  0  0
 16 10  1  0  0  0  0
 16 19  2  0  0  0  0
 17 21  2  0  0  0  0
 18 15  2  0  0  0  0
 18  1  1  0  0  0  0
 19 18  1  0  0  0  0
 20 22  2  0  0  0  0
 21  4  1  0  0  0  0
 21 22  1  0  0  0  0
 23  1  1  0  0  0  0
 24  4  1  0  0  0  0
M  END
>  <MODEL>
2

>  <REMARK>
 VINA RESULT:   -10.000      0.953      7.891
 INTER + INTRA:         -10.000
 INTER:                 -10.000
 INTRA:                   0.000
 UNBOUND:                 0.000
  0 active torsions:
  status: ('A' for Active; 'I' for Inactive)

>  <TORSDO>
F 0

$$$$
./Coptisina.pdbqt
 OpenBabel10282519553D

 24 29  0  0  1  0  0  0  0  0999 V2000
  -38.9180   19.9840  -16.7360 O   0  0  0  0  0  0  0  0  0  0  0  0
  -37.9180   18.7740  -18.4990 O   0  0  0  0  0  0  0  0  0  0  0  0
  -30.7090   23.3130  -12.1000 O   0  0  0  0  0  0  0  0  0  0  0  0
  -31.4790   25.2310  -10.9540 O   0  0  0  0  0  0  0  0  0  0  0  0
  -33.2350   21.0810  -14.8370 N   0  0  0  0  0  0  0  0  0  0  0  0
  -32.7640   19.8950  -15.5930 C   0  0  0  0  0  2  0  0  0  0  0  0
  -34.5600   21.5130  -15.0180 C   0  0  2  0  0  3  0  0  0  0  0  0
  -33.3330   19.9250  -17.0150 C   0  0  0  0  0  2  0  0  0  0  0  0
  -35.4090   20.7410  -15.9230 C   0  0  0  0  0  0  0  0  0  0  0  0
  -34.8250   19.9880  -16.9480 C   0  0  0  0  0  0  0  0  0  0  0  0
  -32.8200   22.8660  -13.3010 C   0  0  0  0  0  0  0  0  0  0  0  0
  -32.3980   21.7220  -14.0130 C   0  0  0  0  0  3  0  0  0  0  0  0
  -34.9920   22.6420  -14.3590 C   0  0  0  0  0  3  0  0  0  0  0  0
  -34.1510   23.3630  -13.4710 C   0  0  0  0  0  0  0  0  0  0  0  0
  -36.8150   20.7850  -15.7550 C   0  0  0  0  0  3  0  0  0  0  0  0
  -35.5950   19.2880  -17.8930 C   0  0  0  0  0  3  0  0  0  0  0  0
  -32.0040   23.5810  -12.4230 C   0  0  0  0  0  0  0  0  0  0  0  0
  -37.5580   20.0930  -16.6740 C   0  0  0  0  0  0  0  0  0  0  0  0
  -36.9590   19.3610  -17.7360 C   0  0  0  0  0  0  0  0  0  0  0  0
  -34.5900   24.5130  -12.7790 C   0  0  0  0  0  3  0  0  0  0  0  0
  -32.4650   24.7180  -11.7480 C   0  0  0  0  0  0  0  0  0  0  0  0
  -33.7590   25.2070  -11.9100 C   0  0  0  0  0  3  0  0  0  0  0  0
  -39.1840   19.1510  -17.8920 C   0  0  0  0  0  2  0  0  0  0  0  0
  -30.3370   24.3580  -11.1510 C   0  0  0  0  0  2  0  0  0  0  0  0
  1 18  1  0  0  0  0
  2 23  1  0  0  0  0
  2 19  1  0  0  0  0
  3 24  1  0  0  0  0
  5 12  1  0  0  0  0
  6  5  1  0  0  0  0
  7  5  1  0  0  0  0
  7 13  1  6  0  0  0
  8 10  1  0  0  0  0
  8  6  1  0  0  0  0
  9 15  1  0  0  0  0
  9  7  1  0  0  0  0
 10  9  2  0  0  0  0
 11 17  1  0  0  0  0
 12 11  2  0  0  0  0
 13 14  2  0  0  0  0
 14 11  1  0  0  0  0
 14 20  1  0  0  0  0
 16 19  2  0  0  0  0
 16 10  1  0  0  0  0
 17  3  1  0  0  0  0
 17 21  2  0  0  0  0
 18 15  2  0  0  0  0
 19 18  1  0  0  0  0
 20 22  2  0  0  0  0
 21  4  1  0  0  0  0
 22 21  1  0  0  0  0
 23  1  1  0  0  0  0
 24  4  1  0  0  0  0
M  END
>  <MODEL>
3

>  <REMARK>
 VINA RESULT:    -9.635      2.433      7.685
 INTER + INTRA:          -9.635
 INTER:                  -9.635
 INTRA:                   0.000
 UNBOUND:                 0.000
  0 active torsions:
  status: ('A' for Active; 'I' for Inactive)

>  <TORSDO>
F 0

$$$$
./Coptisina.pdbqt
 OpenBabel10282519553D

 24 29  0  0  1  0  0  0  0  0999 V2000
  -30.6600   23.0670  -10.9500 O   0  0  0  0  0  0  0  0  0  0  0  0
  -31.6080   25.1820  -10.4970 O   0  0  0  0  0  0  0  0  0  0  0  0
  -37.2760   19.6430  -17.6180 O   0  0  0  0  0  0  0  0  0  0  0  0
  -36.0330   18.0430  -18.8360 O   0  0  0  0  0  0  0  0  0  0  0  0
  -35.4580   22.1750  -14.5960 N   0  0  0  0  0  0  0  0  0  0  0  0
  -36.2100   23.2090  -13.8430 C   0  0  0  0  0  2  0  0  0  0  0  0
  -34.0890   22.0080  -14.3270 C   0  0  2  0  0  3  0  0  0  0  0  0
  -35.3440   24.4600  -13.6710 C   0  0  0  0  0  2  0  0  0  0  0  0
  -33.4920   22.8480  -13.2910 C   0  0  0  0  0  0  0  0  0  0  0  0
  -34.0680   24.0870  -12.9860 C   0  0  0  0  0  0  0  0  0  0  0  0
  -35.3830   20.4590  -16.2590 C   0  0  0  0  0  0  0  0  0  0  0  0
  -36.0850   21.4340  -15.5160 C   0  0  0  0  0  3  0  0  0  0  0  0
  -33.3710   21.0860  -15.0550 C   0  0  0  0  0  3  0  0  0  0  0  0
  -33.9810   20.2690  -16.0440 C   0  0  0  0  0  0  0  0  0  0  0  0
  -32.3250   22.3990  -12.6260 C   0  0  0  0  0  3  0  0  0  0  0  0
  -33.4940   24.9690  -12.0530 C   0  0  0  0  0  3  0  0  0  0  0  0
  -35.9710   19.6480  -17.2310 C   0  0  0  0  0  0  0  0  0  0  0  0
  -31.7770   23.2590  -11.7130 C   0  0  0  0  0  0  0  0  0  0  0  0
  -32.3470   24.5330  -11.4350 C   0  0  0  0  0  0  0  0  0  0  0  0
  -33.2570   19.3100  -16.7850 C   0  0  0  0  0  3  0  0  0  0  0  0
  -35.2290   18.7030  -17.9500 C   0  0  0  0  0  0  0  0  0  0  0  0
  -33.8650   18.5140  -17.7460 C   0  0  0  0  0  3  0  0  0  0  0  0
  -30.5200   24.2770  -10.1640 C   0  0  0  0  0  2  0  0  0  0  0  0
  -37.3540   18.6160  -18.6530 C   0  0  0  0  0  2  0  0  0  0  0  0
  1 23  1  0  0  0  0
  2 23  1  0  0  0  0
  3 17  1  0  0  0  0
  4 24  1  0  0  0  0
  4 21  1  0  0  0  0
  5  7  1  0  0  0  0
  5  6  1  0  0  0  0
  6  8  1  0  0  0  0
  7 13  1  6  0  0  0
  7  9  1  0  0  0  0
  8 10  1  0  0  0  0
  9 10  2  0  0  0  0
  9 15  1  0  0  0  0
 10 16  1  0  0  0  0
 11 14  1  0  0  0  0
 11 12  2  0  0  0  0
 12  5  1  0  0  0  0
 14 13  2  0  0  0  0
 15 18  2  0  0  0  0
 16 19  2  0  0  0  0
 17 11  1  0  0  0  0
 18 19  1  0  0  0  0
 18  1  1  0  0  0  0
 19  2  1  0  0  0  0
 20 14  1  0  0  0  0
 21 22  1  0  0  0  0
 21 17  2  0  0  0  0
 22 20  2  0  0  0  0
 24  3  1  0  0  0  0
M  END
>  <MODEL>
4

>  <REMARK>
 VINA RESULT:    -9.608      2.742      3.898
 INTER + INTRA:          -9.608
 INTER:                  -9.608
 INTRA:                   0.000
 UNBOUND:                 0.000
  0 active torsions:
  status: ('A' for Active; 'I' for Inactive)

>  <TORSDO>
F 0

$$$$
./Coptisina.pdbqt
 OpenBabel10282519553D

 24 29  0  0  1  0  0  0  0  0999 V2000
  -32.7620   17.8120  -18.7630 O   0  0  0  0  0  0  0  0  0  0  0  0
  -35.0330   17.3210  -19.1840 O   0  0  0  0  0  0  0  0  0  0  0  0
  -33.8310   25.1690  -12.0790 O   0  0  0  0  0  0  0  0  0  0  0  0
  -31.7880   25.1170  -10.8910 O   0  0  0  0  0  0  0  0  0  0  0  0
  -34.8350   22.2050  -15.0870 N   0  0  0  0  0  0  0  0  0  0  0  0
  -36.1240   22.1970  -15.8220 C   0  0  0  0  0  2  0  0  0  0  0  0
  -33.8930   21.2010  -15.3690 C   0  0  2  0  0  3  0  0  0  0  0  0
  -36.6210   20.7580  -15.9860 C   0  0  0  0  0  2  0  0  0  0  0  0
  -34.2310   20.2220  -16.4010 C   0  0  0  0  0  0  0  0  0  0  0  0
  -35.5740   19.9520  -16.6870 C   0  0  0  0  0  0  0  0  0  0  0  0
  -33.3850   23.1610  -13.4440 C   0  0  0  0  0  0  0  0  0  0  0  0
  -34.5970   23.1490  -14.1700 C   0  0  0  0  0  3  0  0  0  0  0  0
  -32.7150   21.1700  -14.6580 C   0  0  0  0  0  3  0  0  0  0  0  0
  -32.4040   22.1450  -13.6740 C   0  0  0  0  0  0  0  0  0  0  0  0
  -33.1870   19.5480  -17.0810 C   0  0  0  0  0  3  0  0  0  0  0  0
  -35.9580   18.9670  -17.6140 C   0  0  0  0  0  3  0  0  0  0  0  0
  -33.0670   24.1160  -12.4770 C   0  0  0  0  0  0  0  0  0  0  0  0
  -33.5680   18.5980  -17.9890 C   0  0  0  0  0  0  0  0  0  0  0  0
  -34.9360   18.3010  -18.2470 C   0  0  0  0  0  0  0  0  0  0  0  0
  -31.1920   22.1300  -12.9500 C   0  0  0  0  0  3  0  0  0  0  0  0
  -31.8560   24.0790  -11.7750 C   0  0  0  0  0  0  0  0  0  0  0  0
  -30.8970   23.0920  -11.9930 C   0  0  0  0  0  3  0  0  0  0  0  0
  -33.6650   16.9820  -19.5360 C   0  0  0  0  0  2  0  0  0  0  0  0
  -33.0350   25.8410  -11.0550 C   0  0  0  0  0  2  0  0  0  0  0  0
  1 18  1  0  0  0  0
  2 19  1  0  0  0  0
  3 24  1  0  0  0  0
  5 12  1  0  0  0  0
  6  5  1  0  0  0  0
  7  5  1  0  0  0  0
  7 13  1  1  0  0  0
  8  6  1  0  0  0  0
  9  7  1  0  0  0  0
 10  9  1  0  0  0  0
 10  8  1  0  0  0  0
 11 17  1  0  0  0  0
 12 11  2  0  0  0  0
 13 14  2  0  0  0  0
 14 11  1  0  0  0  0
 14 20  1  0  0  0  0
 15  9  2  0  0  0  0
 16 10  2  0  0  0  0
 17  3  1  0  0  0  0
 17 21  2  0  0  0  0
 18 15  1  0  0  0  0
 19 18  2  0  0  0  0
 19 16  1  0  0  0  0
 20 22  2  0  0  0  0
 21  4  1  0  0  0  0
 22 21  1  0  0  0  0
 23  2  1  0  0  0  0
 23  1  1  0  0  0  0
 24  4  1  0  0  0  0
M  END
>  <MODEL>
5

>  <REMARK>
 VINA RESULT:    -9.597      3.584      6.963
 INTER + INTRA:          -9.597
 INTER:                  -9.597
 INTRA:                   0.000
 UNBOUND:                 0.000
  0 active torsions:
  status: ('A' for Active; 'I' for Inactive)

>  <TORSDO>
F 0

$$$$
./Coptisina.pdbqt
 OpenBabel10282519553D

 24 29  0  0  1  0  0  0  0  0999 V2000
  -33.7410   25.4760  -11.9100 O   0  0  0  0  0  0  0  0  0  0  0  0
  -31.6700   24.9000  -10.9350 O   0  0  0  0  0  0  0  0  0  0  0  0
  -34.5520   18.1120  -18.6250 O   0  0  0  0  0  0  0  0  0  0  0  0
  -36.8820   17.9780  -18.9970 O   0  0  0  0  0  0  0  0  0  0  0  0
  -32.8360   20.7190  -15.6060 N   0  0  0  0  0  0  0  0  0  0  0  0
  -31.3800   20.7950  -15.3310 C   0  0  0  0  0  2  0  0  0  0  0  0
  -33.7080   21.5210  -14.8500 C   0  0  2  0  0  3  0  0  0  0  0  0
  -31.1400   20.9090  -13.8230 C   0  0  0  0  0  2  0  0  0  0  0  0
  -33.1180   22.4120  -13.8530 C   0  0  0  0  0  0  0  0  0  0  0  0
  -31.8720   22.1020  -13.2960 C   0  0  0  0  0  0  0  0  0  0  0  0
  -34.6770   19.7840  -16.8130 C   0  0  0  0  0  0  0  0  0  0  0  0
  -33.2930   19.8890  -16.5500 C   0  0  0  0  0  3  0  0  0  0  0  0
  -35.0640   21.4210  -15.0620 C   0  0  0  0  0  3  0  0  0  0  0  0
  -35.6090   20.5590  -16.0510 C   0  0  0  0  0  0  0  0  0  0  0  0
  -33.8320   23.5680  -13.4530 C   0  0  0  0  0  3  0  0  0  0  0  0
  -31.2920   22.8820  -12.2800 C   0  0  0  0  0  3  0  0  0  0  0  0
  -35.2240   18.9440  -17.7830 C   0  0  0  0  0  0  0  0  0  0  0  0
  -33.2570   24.3280  -12.4700 C   0  0  0  0  0  0  0  0  0  0  0  0
  -32.0070   23.9860  -11.8820 C   0  0  0  0  0  0  0  0  0  0  0  0
  -36.9980   20.4610  -16.2870 C   0  0  0  0  0  3  0  0  0  0  0  0
  -36.6060   18.8680  -17.9980 C   0  0  0  0  0  0  0  0  0  0  0  0
  -37.5180   19.6180  -17.2600 C   0  0  0  0  0  3  0  0  0  0  0  0
  -32.7550   25.8670  -10.9230 C   0  0  0  0  0  2  0  0  0  0  0  0
  -35.5910   17.4730  -19.4260 C   0  0  0  0  0  2  0  0  0  0  0  0
  1 23  1  0  0  0  0
  2 23  1  0  0  0  0
  3 17  1  0  0  0  0
  4 21  1  0  0  0  0
  5  6  1  0  0  0  0
  5  7  1  0  0  0  0
  6  8  1  0  0  0  0
  7 13  1  1  0  0  0
  7  9  1  0  0  0  0
  8 10  1  0  0  0  0
  9 15  2  0  0  0  0
  9 10  1  0  0  0  0
 10 16  2  0  0  0  0
 11 12  2  0  0  0  0
 11 14  1  0  0  0  0
 12  5  1  0  0  0  0
 14 13  2  0  0  0  0
 15 18  1  0  0  0  0
 16 19  1  0  0  0  0
 17 11  1  0  0  0  0
 18  1  1  0  0  0  0
 18 19  2  0  0  0  0
 19  2  1  0  0  0  0
 20 14  1  0  0  0  0
 21 17  2  0  0  0  0
 21 22  1  0  0  0  0
 22 20  2  0  0  0  0
 24  4  1  0  0  0  0
 24  3  1  0  0  0  0
M  END
>  <MODEL>
6

>  <REMARK>
 VINA RESULT:    -9.509      3.299      4.818
 INTER + INTRA:          -9.509
 INTER:                  -9.509
 INTRA:                   0.000
 UNBOUND:                 0.000
  0 active torsions:
  status: ('A' for Active; 'I' for Inactive)

>  <TORSDO>
F 0

$$$$
./Coptisina.pdbqt
 OpenBabel10282519553D

 24 29  0  0  1  0  0  0  0  0999 V2000
  -36.2560   19.0730  -18.6860 O   0  0  0  0  0  0  0  0  0  0  0  0
  -38.5380   19.2490  -18.1080 O   0  0  0  0  0  0  0  0  0  0  0  0
  -32.2490   24.7700  -11.5130 O   0  0  0  0  0  0  0  0  0  0  0  0
  -30.0330   23.9630  -11.3610 O   0  0  0  0  0  0  0  0  0  0  0  0
  -35.2280   22.8900  -14.0510 N   0  0  0  0  0  0  0  0  0  0  0  0
  -36.6340   23.3570  -14.1380 C   0  0  0  0  0  2  0  0  0  0  0  0
  -34.8390   21.7790  -14.8190 C   0  0  2  0  0  3  0  0  0  0  0  0
  -37.5790   22.1550  -14.2100 C   0  0  0  0  0  2  0  0  0  0  0  0
  -35.8430   21.1690  -15.6890 C   0  0  0  0  0  0  0  0  0  0  0  0
  -37.2010   21.3000  -15.3780 C   0  0  0  0  0  0  0  0  0  0  0  0
  -33.0300   23.0750  -13.1290 C   0  0  0  0  0  0  0  0  0  0  0  0
  -34.3660   23.5170  -13.2440 C   0  0  0  0  0  3  0  0  0  0  0  0
  -33.5510   21.3070  -14.7090 C   0  0  0  0  0  3  0  0  0  0  0  0
  -32.5900   21.9310  -13.8700 C   0  0  0  0  0  0  0  0  0  0  0  0
  -35.4180   20.4350  -16.8240 C   0  0  0  0  0  3  0  0  0  0  0  0
  -38.2060   20.6710  -16.1350 C   0  0  0  0  0  3  0  0  0  0  0  0
  -32.0750   23.6810  -12.3110 C   0  0  0  0  0  0  0  0  0  0  0  0
  -36.4020   19.8340  -17.5610 C   0  0  0  0  0  0  0  0  0  0  0  0
  -37.7790   19.9400  -17.2170 C   0  0  0  0  0  0  0  0  0  0  0  0
  -31.2620   21.4630  -13.7610 C   0  0  0  0  0  3  0  0  0  0  0  0
  -30.7640   23.1970  -12.2240 C   0  0  0  0  0  0  0  0  0  0  0  0
  -30.3310   22.0850  -12.9410 C   0  0  0  0  0  3  0  0  0  0  0  0
  -37.6000   18.6800  -19.0610 C   0  0  0  0  0  2  0  0  0  0  0  0
  -30.9490   24.9820  -10.8840 C   0  0  0  0  0  2  0  0  0  0  0  0
  1 18  1  0  0  0  0
  2 19  1  0  0  0  0
  3 24  1  0  0  0  0
  4 24  1  0  0  0  0
  5 12  1  0  0  0  0
  6  5  1  0  0  0  0
  7 13  1  1  0  0  0
  7  5  1  0  0  0  0
  8  6  1  0  0  0  0
  9 10  1  0  0  0  0
  9  7  1  0  0  0  0
 10  8  1  0  0  0  0
 11 17  1  0  0  0  0
 12 11  2  0  0  0  0
 13 14  2  0  0  0  0
 14 20  1  0  0  0  0
 14 11  1  0  0  0  0
 15  9  2  0  0  0  0
 16 10  2  0  0  0  0
 17 21  2  0  0  0  0
 17  3  1  0  0  0  0
 18 19  2  0  0  0  0
 18 15  1  0  0  0  0
 19 16  1  0  0  0  0
 20 22  2  0  0  0  0
 21  4  1  0  0  0  0
 22 21  1  0  0  0  0
 23  1  1  0  0  0  0
 23  2  1  0  0  0  0
M  END
>  <MODEL>
7

>  <REMARK>
 VINA RESULT:    -9.255      2.234      7.417
 INTER + INTRA:          -9.255
 INTER:                  -9.255
 INTRA:                   0.000
 UNBOUND:                 0.000
  0 active torsions:
  status: ('A' for Active; 'I' for Inactive)

>  <TORSDO>
F 0

$$$$
./Coptisina.pdbqt
 OpenBabel10282519553D

 24 29  0  0  1  0  0  0  0  0999 V2000
  -32.1100   24.7160  -10.2610 O   0  0  0  0  0  0  0  0  0  0  0  0
  -30.2230   23.4350  -10.8710 O   0  0  0  0  0  0  0  0  0  0  0  0
  -38.4580   21.9050  -17.4560 O   0  0  0  0  0  0  0  0  0  0  0  0
  -40.5770   22.3160  -16.4940 O   0  0  0  0  0  0  0  0  0  0  0  0
  -34.7680   22.3700  -15.2150 N   0  0  0  0  0  0  0  0  0  0  0  0
  -33.4290   22.0860  -15.7860 C   0  0  0  0  0  2  0  0  0  0  0  0
  -34.8540   22.8040  -13.8810 C   0  0  2  0  0  3  0  0  0  0  0  0
  -32.5520   21.3940  -14.7390 C   0  0  0  0  0  2  0  0  0  0  0  0
  -33.6040   22.9810  -13.1430 C   0  0  0  0  0  0  0  0  0  0  0  0
  -32.4680   22.2560  -13.5200 C   0  0  0  0  0  0  0  0  0  0  0  0
  -37.1480   22.4440  -15.4340 C   0  0  0  0  0  0  0  0  0  0  0  0
  -35.8630   22.2000  -15.9650 C   0  0  0  0  0  3  0  0  0  0  0  0
  -36.0930   23.0220  -13.3260 C   0  0  0  0  0  3  0  0  0  0  0  0
  -37.2910   22.8610  -14.0720 C   0  0  0  0  0  0  0  0  0  0  0  0
  -33.5730   23.8720  -12.0430 C   0  0  0  0  0  3  0  0  0  0  0  0
  -31.2620   22.3280  -12.8000 C   0  0  0  0  0  3  0  0  0  0  0  0
  -38.3320   22.2920  -16.1570 C   0  0  0  0  0  0  0  0  0  0  0  0
  -32.3930   23.9450  -11.3530 C   0  0  0  0  0  0  0  0  0  0  0  0
  -31.2530   23.1760  -11.7190 C   0  0  0  0  0  0  0  0  0  0  0  0
  -38.5670   23.0980  -13.5160 C   0  0  0  0  0  3  0  0  0  0  0  0
  -39.5850   22.5360  -15.5810 C   0  0  0  0  0  0  0  0  0  0  0  0
  -39.7300   22.9400  -14.2560 C   0  0  0  0  0  3  0  0  0  0  0  0
  -30.7330   24.4130   -9.9240 C   0  0  0  0  0  2  0  0  0  0  0  0
  -39.8960   21.9110  -17.7090 C   0  0  0  0  0  2  0  0  0  0  0  0
  1 23  1  0  0  0  0
  2 23  1  0  0  0  0
  3 17  1  0  0  0  0
  4 21  1  0  0  0  0
  5  7  1  0  0  0  0
  6  5  1  0  0  0  0
  6  8  1  0  0  0  0
  7 13  1  1  0  0  0
  7  9  1  0  0  0  0
  8 10  1  0  0  0  0
  9 15  1  0  0  0  0
 10  9  2  0  0  0  0
 10 16  1  0  0  0  0
 11 14  1  0  0  0  0
 12 11  2  0  0  0  0
 12  5  1  0  0  0  0
 14 20  1  0  0  0  0
 14 13  2  0  0  0  0
 15 18  2  0  0  0  0
 16 19  2  0  0  0  0
 17 21  2  0  0  0  0
 17 11  1  0  0  0  0
 18  1  1  0  0  0  0
 19 18  1  0  0  0  0
 19  2  1  0  0  0  0
 21 22  1  0  0  0  0
 22 20  2  0  0  0  0
 24  3  1  0  0  0  0
 24  4  1  0  0  0  0
M  END
>  <MODEL>
8

>  <REMARK>
 VINA RESULT:    -8.975      1.790      3.256
 INTER + INTRA:          -8.975
 INTER:                  -8.975
 INTRA:                   0.000
 UNBOUND:                 0.000
  0 active torsions:
  status: ('A' for Active; 'I' for Inactive)

>  <TORSDO>
F 0

$$$$
./Coptisina.pdbqt
 OpenBabel10282519553D

 24 29  0  0  1  0  0  0  0  0999 V2000
  -35.3570   18.1140  -19.7690 O   0  0  0  0  0  0  0  0  0  0  0  0
  -37.6960   18.1270  -19.4460 O   0  0  0  0  0  0  0  0  0  0  0  0
  -32.5650   23.9260  -12.1280 O   0  0  0  0  0  0  0  0  0  0  0  0
  -30.3300   23.2660  -11.7390 O   0  0  0  0  0  0  0  0  0  0  0  0
  -35.1110   21.9010  -15.0030 N   0  0  0  0  0  0  0  0  0  0  0  0
  -36.5260   22.2760  -15.2410 C   0  0  0  0  0  2  0  0  0  0  0  0
  -34.5630   20.8340  -15.7360 C   0  0  2  0  0  3  0  0  0  0  0  0
  -37.3730   21.0140  -15.4320 C   0  0  0  0  0  2  0  0  0  0  0  0
  -35.4210   20.1750  -16.7190 C   0  0  0  0  0  0  0  0  0  0  0  0
  -36.8110   20.2100  -16.5600 C   0  0  0  0  0  0  0  0  0  0  0  0
  -33.0450   22.2150  -13.8400 C   0  0  0  0  0  0  0  0  0  0  0  0
  -34.3880   22.5690  -14.0970 C   0  0  0  0  0  3  0  0  0  0  0  0
  -33.2670   20.4470  -15.4880 C   0  0  0  0  0  3  0  0  0  0  0  0
  -32.4490   21.1180  -14.5410 C   0  0  0  0  0  0  0  0  0  0  0  0
  -34.8250   19.4940  -17.8080 C   0  0  0  0  0  3  0  0  0  0  0  0
  -37.6810   19.5300  -17.4310 C   0  0  0  0  0  3  0  0  0  0  0  0
  -32.2300   22.8680  -12.9140 C   0  0  0  0  0  0  0  0  0  0  0  0
  -35.6790   18.8420  -18.6580 C   0  0  0  0  0  0  0  0  0  0  0  0
  -37.0890   18.8500  -18.4680 C   0  0  0  0  0  0  0  0  0  0  0  0
  -31.1120   20.7370  -14.2900 C   0  0  0  0  0  3  0  0  0  0  0  0
  -30.9070   22.4710  -12.6870 C   0  0  0  0  0  0  0  0  0  0  0  0
  -30.3220   21.4040  -13.3640 C   0  0  0  0  0  3  0  0  0  0  0  0
  -36.6210   17.6400  -20.2950 C   0  0  0  0  0  2  0  0  0  0  0  0
  -31.3600   24.2130  -11.3550 C   0  0  0  0  0  2  0  0  0  0  0  0
  1 18  1  0  0  0  0
  2 19  1  0  0  0  0
  3 24  1  0  0  0  0
  4 24  1  0  0  0  0
  5 12  1  0  0  0  0
  6  5  1  0  0  0  0
  7 13  1  1  0  0  0
  7  5  1  0  0  0  0
  8  6  1  0  0  0  0
  9 10  1  0  0  0  0
  9  7  1  0  0  0  0
 10  8  1  0  0  0  0
 11 17  1  0  0  0  0
 12 11  2  0  0  0  0
 13 14  2  0  0  0  0
 14 20  1  0  0  0  0
 14 11  1  0  0  0  0
 15  9  2  0  0  0  0
 16 10  2  0  0  0  0
 17 21  2  0  0  0  0
 17  3  1  0  0  0  0
 18 19  2  0  0  0  0
 18 15  1  0  0  0  0
 19 16  1  0  0  0  0
 20 22  2  0  0  0  0
 21  4  1  0  0  0  0
 22 21  1  0  0  0  0
 23  1  1  0  0  0  0
 23  2  1  0  0  0  0
M  END
>  <MODEL>
9

>  <REMARK>
 VINA RESULT:    -8.908      3.147      7.710
 INTER + INTRA:          -8.908
 INTER:                  -8.908
 INTRA:                   0.000
 UNBOUND:                 0.000
  0 active torsions:
  status: ('A' for Active; 'I' for Inactive)

>  <TORSDO>
F 0

$$$$
./Coptisina.pdbqt
 OpenBabel10282519553D

 24 29  0  0  1  0  0  0  0  0999 V2000
  -39.6040   20.2730  -16.2240 O   0  0  0  0  0  0  0  0  0  0  0  0
  -39.4640   19.3660  -18.4000 O   0  0  0  0  0  0  0  0  0  0  0  0
  -29.8690   20.9760  -14.0580 O   0  0  0  0  0  0  0  0  0  0  0  0
  -29.8060   22.6670  -12.4090 O   0  0  0  0  0  0  0  0  0  0  0  0
  -33.5230   19.9160  -16.1490 N   0  0  0  0  0  0  0  0  0  0  0  0
  -33.5810   18.8810  -17.2110 C   0  0  0  0  0  2  0  0  0  0  0  0
  -34.7040   20.5950  -15.8050 C   0  0  2  0  0  3  0  0  0  0  0  0
  -34.5090   19.3430  -18.3370 C   0  0  0  0  0  2  0  0  0  0  0  0
  -35.9340   20.2140  -16.4970 C   0  0  0  0  0  0  0  0  0  0  0  0
  -35.8620   19.6390  -17.7710 C   0  0  0  0  0  0  0  0  0  0  0  0
  -32.2780   21.1880  -14.5530 C   0  0  0  0  0  0  0  0  0  0  0  0
  -32.3590   20.1920  -15.5500 C   0  0  0  0  0  3  0  0  0  0  0  0
  -34.6520   21.5910  -14.8560 C   0  0  0  0  0  3  0  0  0  0  0  0
  -33.4470   21.9280  -14.1850 C   0  0  0  0  0  0  0  0  0  0  0  0
  -37.1810   20.4530  -15.8710 C   0  0  0  0  0  3  0  0  0  0  0  0
  -37.0120   19.3230  -18.5150 C   0  0  0  0  0  3  0  0  0  0  0  0
  -31.1010   21.5270  -13.8830 C   0  0  0  0  0  0  0  0  0  0  0  0
  -38.2960   20.1340  -16.5970 C   0  0  0  0  0  0  0  0  0  0  0  0
  -38.2160   19.5850  -17.9070 C   0  0  0  0  0  0  0  0  0  0  0  0
  -33.3860   22.9380  -13.1990 C   0  0  0  0  0  3  0  0  0  0  0  0
  -31.0690   22.5310  -12.9090 C   0  0  0  0  0  0  0  0  0  0  0  0
  -32.2030   23.2550  -12.5470 C   0  0  0  0  0  3  0  0  0  0  0  0
  -40.3770   19.7950  -17.3530 C   0  0  0  0  0  2  0  0  0  0  0  0
  -29.0060   21.6870  -13.1190 C   0  0  0  0  0  2  0  0  0  0  0  0
  2 19  1  0  0  0  0
  2 23  1  0  0  0  0
  3 17  1  0  0  0  0
  3 24  1  0  0  0  0
  5  7  1  0  0  0  0
  5 12  1  0  0  0  0
  6  5  1  0  0  0  0
  7 13  1  6  0  0  0
  8 10  1  0  0  0  0
  8  6  1  0  0  0  0
  9 15  1  0  0  0  0
  9  7  1  0  0  0  0
 10  9  2  0  0  0  0
 11 14  1  0  0  0  0
 11 17  1  0  0  0  0
 12 11  2  0  0  0  0
 13 14  2  0  0  0  0
 14 20  1  0  0  0  0
 16 19  2  0  0  0  0
 16 10  1  0  0  0  0
 17 21  2  0  0  0  0
 18  1  1  0  0  0  0
 18 15  2  0  0  0  0
 19 18  1  0  0  0  0
 20 22  2  0  0  0  0
 21 22  1  0  0  0  0
 21  4  1  0  0  0  0
 23  1  1  0  0  0  0
 24  4  1  0  0  0  0
M  END
>  <MODEL>
10

>  <REMARK>
 VINA RESULT:    -8.735      2.595      8.466
 INTER + INTRA:          -8.735
 INTER:                  -8.735
 INTRA:                   0.000
 UNBOUND:                 0.000
  0 active torsions:
  status: ('A' for Active; 'I' for Inactive)

>  <TORSDO>
F 0

$$$$
./Coptisina.pdbqt
 OpenBabel10282519553D

 24 29  0  0  1  0  0  0  0  0999 V2000
  -34.8150   39.3590    8.3300 O   0  0  0  0  0  0  0  0  0  0  0  0
  -33.1410   39.7480    9.9480 O   0  0  0  0  0  0  0  0  0  0  0  0
  -41.2990   34.1030   13.8350 O   0  0  0  0  0  0  0  0  0  0  0  0
  -43.3540   34.4480   12.7200 O   0  0  0  0  0  0  0  0  0  0  0  0
  -37.6560   36.1550   12.6620 N   0  0  0  0  0  0  0  0  0  0  0  0
  -36.3630   35.9810   13.3670 C   0  0  0  0  0  2  0  0  0  0  0  0
  -37.7140   37.0320   11.5660 C   0  0  2  0  0  3  0  0  0  0  0  0
  -35.6430   37.3280   13.4750 C   0  0  0  0  0  2  0  0  0  0  0  0
  -36.4770   37.6990   11.1640 C   0  0  0  0  0  0  0  0  0  0  0  0
  -35.4600   37.9000   12.1050 C   0  0  0  0  0  0  0  0  0  0  0  0
  -39.9850   35.6600   12.4400 C   0  0  0  0  0  0  0  0  0  0  0  0
  -38.7390   35.4920   13.0830 C   0  0  0  0  0  3  0  0  0  0  0  0
  -38.9190   37.2390   10.9360 C   0  0  0  0  0  3  0  0  0  0  0  0
  -40.1020   36.5620   11.3350 C   0  0  0  0  0  0  0  0  0  0  0  0
  -36.3380   38.1490    9.8280 C   0  0  0  0  0  3  0  0  0  0  0  0
  -34.2820   38.6020   11.7950 C   0  0  0  0  0  3  0  0  0  0  0  0
  -41.1540   34.9990   12.8200 C   0  0  0  0  0  0  0  0  0  0  0  0
  -35.1840   38.8230    9.5310 C   0  0  0  0  0  0  0  0  0  0  0  0
  -34.1710   39.0570   10.5030 C   0  0  0  0  0  0  0  0  0  0  0  0
  -41.3410   36.7560   10.6850 C   0  0  0  0  0  3  0  0  0  0  0  0
  -42.3690   35.2090   12.1570 C   0  0  0  0  0  0  0  0  0  0  0  0
  -42.4900   36.0860   11.0820 C   0  0  0  0  0  3  0  0  0  0  0  0
  -33.5170   39.9600    8.5600 C   0  0  0  0  0  2  0  0  0  0  0  0
  -42.7080   33.7230   13.7980 C   0  0  0  0  0  2  0  0  0  0  0  0
  1 23  1  0  0  0  0
  1 18  1  0  0  0  0
  2 19  1  0  0  0  0
  4 24  1  0  0  0  0
  5 12  1  0  0  0  0
  5  6  1  0  0  0  0
  6  8  1  0  0  0  0
  7 13  1  1  0  0  0
  7  5  1  0  0  0  0
  9  7  1  0  0  0  0
  9 10  1  0  0  0  0
 10  8  1  0  0  0  0
 11 17  1  0  0  0  0
 11 12  2  0  0  0  0
 13 14  2  0  0  0  0
 14 11  1  0  0  0  0
 15  9  2  0  0  0  0
 16 10  2  0  0  0  0
 17  3  1  0  0  0  0
 18 15  1  0  0  0  0
 18 19  2  0  0  0  0
 19 16  1  0  0  0  0
 20 22  2  0  0  0  0
 20 14  1  0  0  0  0
 21  4  1  0  0  0  0
 21 17  2  0  0  0  0
 22 21  1  0  0  0  0
 23  2  1  0  0  0  0
 24  3  1  0  0  0  0
M  END
>  <MODEL>
11

>  <REMARK>
 VINA RESULT:    -8.533     27.734     28.827
 INTER + INTRA:          -8.533
 INTER:                  -8.533
 INTRA:                   0.000
 UNBOUND:                 0.000
  0 active torsions:
  status: ('A' for Active; 'I' for Inactive)

>  <TORSDO>
F 0

$$$$
./Coptisina.pdbqt
 OpenBabel10282519553D

 24 29  0  0  1  0  0  0  0  0999 V2000
  -36.6460   18.1150  -18.3250 O   0  0  0  0  0  0  0  0  0  0  0  0
  -34.9290   17.8140  -19.9170 O   0  0  0  0  0  0  0  0  0  0  0  0
  -31.9040   24.0490  -11.8240 O   0  0  0  0  0  0  0  0  0  0  0  0
  -33.6730   25.1740  -10.7340 O   0  0  0  0  0  0  0  0  0  0  0  0
  -32.5770   21.3870  -15.1880 N   0  0  0  0  0  0  0  0  0  0  0  0
  -31.4800   20.6960  -15.9090 C   0  0  0  0  0  2  0  0  0  0  0  0
  -33.9000   21.1810  -15.6140 C   0  0  2  0  0  3  0  0  0  0  0  0
  -31.7680   20.6930  -17.4130 C   0  0  0  0  0  2  0  0  0  0  0  0
  -34.1180   20.2640  -16.7320 C   0  0  0  0  0  0  0  0  0  0  0  0
  -33.0930   20.0470  -17.6610 C   0  0  0  0  0  0  0  0  0  0  0  0
  -33.3200   22.8810  -13.4750 C   0  0  0  0  0  0  0  0  0  0  0  0
  -32.2930   22.1970  -14.1610 C   0  0  0  0  0  3  0  0  0  0  0  0
  -34.9200   21.8550  -14.9840 C   0  0  0  0  0  3  0  0  0  0  0  0
  -34.6820   22.7260  -13.8880 C   0  0  0  0  0  0  0  0  0  0  0  0
  -35.3750   19.6250  -16.8650 C   0  0  0  0  0  3  0  0  0  0  0  0
  -33.2720   19.2370  -18.7960 C   0  0  0  0  0  3  0  0  0  0  0  0
  -33.1000   23.7370  -12.3950 C   0  0  0  0  0  0  0  0  0  0  0  0
  -35.5380   18.8290  -17.9670 C   0  0  0  0  0  0  0  0  0  0  0  0
  -34.5040   18.6440  -18.9280 C   0  0  0  0  0  0  0  0  0  0  0  0
  -35.7240   23.4110  -13.2250 C   0  0  0  0  0  3  0  0  0  0  0  0
  -34.1520   24.4020  -11.7540 C   0  0  0  0  0  0  0  0  0  0  0  0
  -35.4780   24.2560  -12.1520 C   0  0  0  0  0  3  0  0  0  0  0  0
  -36.2940   17.4580  -19.5680 C   0  0  0  0  0  2  0  0  0  0  0  0
  -32.2360   24.9750  -10.7450 C   0  0  0  0  0  2  0  0  0  0  0  0
  1 18  1  0  0  0  0
  2 23  1  0  0  0  0
  2 19  1  0  0  0  0
  3 24  1  0  0  0  0
  5 12  1  0  0  0  0
  6  5  1  0  0  0  0
  7  5  1  0  0  0  0
  7 13  1  6  0  0  0
  8  6  1  0  0  0  0
  9  7  1  0  0  0  0
 10  8  1  0  0  0  0
 10  9  2  0  0  0  0
 11 17  1  0  0  0  0
 12 11  2  0  0  0  0
 13 14  2  0  0  0  0
 14 11  1  0  0  0  0
 14 20  1  0  0  0  0
 15  9  1  0  0  0  0
 16 10  1  0  0  0  0
 17  3  1  0  0  0  0
 17 21  2  0  0  0  0
 18 15  2  0  0  0  0
 19 16  2  0  0  0  0
 19 18  1  0  0  0  0
 20 22  2  0  0  0  0
 21  4  1  0  0  0  0
 22 21  1  0  0  0  0
 23  1  1  0  0  0  0
 24  4  1  0  0  0  0
M  END
>  <MODEL>
12

>  <REMARK>
 VINA RESULT:    -8.307      3.642      7.108
 INTER + INTRA:          -8.307
 INTER:                  -8.307
 INTRA:                   0.000
 UNBOUND:                 0.000
  0 active torsions:
  status: ('A' for Active; 'I' for Inactive)

>  <TORSDO>
F 0

$$$$
./Coptisina.pdbqt
 OpenBabel10282519553D

 24 29  0  0  1  0  0  0  0  0999 V2000
   -1.6450   34.8330    6.7320 O   0  0  0  0  0  0  0  0  0  0  0  0
   -1.4260   36.5930    5.1730 O   0  0  0  0  0  0  0  0  0  0  0  0
   -9.1770   38.3970   12.2570 O   0  0  0  0  0  0  0  0  0  0  0  0
  -10.1190   36.4470   13.2030 O   0  0  0  0  0  0  0  0  0  0  0  0
   -5.9890   38.2350    9.3150 N   0  0  0  0  0  0  0  0  0  0  0  0
   -5.4040   39.4430    8.6820 C   0  0  0  0  0  2  0  0  0  0  0  0
   -5.4960   36.9730    8.9410 C   0  0  2  0  0  3  0  0  0  0  0  0
   -5.1380   39.1760    7.1980 C   0  0  0  0  0  2  0  0  0  0  0  0
   -4.4060   36.9300    7.9680 C   0  0  0  0  0  0  0  0  0  0  0  0
   -4.2420   37.9870    7.0640 C   0  0  0  0  0  0  0  0  0  0  0  0
   -7.5580   37.2240   10.8100 C   0  0  0  0  0  0  0  0  0  0  0  0
   -6.9730   38.3620   10.2120 C   0  0  0  0  0  3  0  0  0  0  0  0
   -6.0650   35.8440    9.4840 C   0  0  0  0  0  3  0  0  0  0  0  0
   -7.1100   35.9150   10.4430 C   0  0  0  0  0  0  0  0  0  0  0  0
   -3.5450   35.8060    7.9450 C   0  0  0  0  0  3  0  0  0  0  0  0
   -3.2600   37.9650    6.0580 C   0  0  0  0  0  3  0  0  0  0  0  0
   -8.5830   37.2800   11.7540 C   0  0  0  0  0  0  0  0  0  0  0  0
   -2.5850   35.7960    6.9690 C   0  0  0  0  0  0  0  0  0  0  0  0
   -2.4480   36.8560    6.0290 C   0  0  0  0  0  0  0  0  0  0  0  0
   -7.6900   34.7620   11.0170 C   0  0  0  0  0  3  0  0  0  0  0  0
   -9.1390   36.1220   12.3100 C   0  0  0  0  0  0  0  0  0  0  0  0
   -8.7090   34.8450   11.9560 C   0  0  0  0  0  3  0  0  0  0  0  0
   -0.8890   35.3080    5.5900 C   0  0  0  0  0  2  0  0  0  0  0  0
  -10.1740   37.8970   13.1990 C   0  0  0  0  0  2  0  0  0  0  0  0
  1 18  1  0  0  0  0
  2 23  1  0  0  0  0
  2 19  1  0  0  0  0
  3 24  1  0  0  0  0
  5 12  1  0  0  0  0
  6  5  1  0  0  0  0
  7  5  1  0  0  0  0
  7 13  1  6  0  0  0
  8  6  1  0  0  0  0
  9  7  1  0  0  0  0
 10  8  1  0  0  0  0
 10  9  2  0  0  0  0
 11 17  1  0  0  0  0
 12 11  2  0  0  0  0
 13 14  2  0  0  0  0
 14 11  1  0  0  0  0
 14 20  1  0  0  0  0
 15  9  1  0  0  0  0
 16 10  1  0  0  0  0
 17  3  1  0  0  0  0
 17 21  2  0  0  0  0
 18 15  2  0  0  0  0
 19 16  2  0  0  0  0
 19 18  1  0  0  0  0
 20 22  2  0  0  0  0
 21  4  1  0  0  0  0
 22 21  1  0  0  0  0
 23  1  1  0  0  0  0
 24  4  1  0  0  0  0
M  END
>  <MODEL>
13

>  <REMARK>
 VINA RESULT:    -8.062     37.918     38.792
 INTER + INTRA:          -8.062
 INTER:                  -8.062
 INTRA:                   0.000
 UNBOUND:                 0.000
  0 active torsions:
  status: ('A' for Active; 'I' for Inactive)

>  <TORSDO>
F 0

$$$$
./Coptisina.pdbqt
 OpenBabel10282519553D

 24 29  0  0  1  0  0  0  0  0999 V2000
   -2.3470   38.8790    5.3870 O   0  0  0  0  0  0  0  0  0  0  0  0
   -3.1560   40.5630    3.9430 O   0  0  0  0  0  0  0  0  0  0  0  0
   -9.7600   38.6940   12.0920 O   0  0  0  0  0  0  0  0  0  0  0  0
   -9.6010   36.5220   13.0100 O   0  0  0  0  0  0  0  0  0  0  0  0
   -7.3020   39.9830    8.7540 N   0  0  0  0  0  0  0  0  0  0  0  0
   -7.4070   41.3290    8.1390 C   0  0  0  0  0  2  0  0  0  0  0  0
   -6.3680   39.0730    8.2290 C   0  0  2  0  0  3  0  0  0  0  0  0
   -7.2760   41.2180    6.6170 C   0  0  0  0  0  2  0  0  0  0  0  0
   -5.5290   39.5250    7.1210 C   0  0  0  0  0  0  0  0  0  0  0  0
   -5.9810   40.5500    6.2820 C   0  0  0  0  0  0  0  0  0  0  0  0
   -8.0270   38.3710   10.3640 C   0  0  0  0  0  0  0  0  0  0  0  0
   -8.0960   39.6540    9.7790 C   0  0  0  0  0  3  0  0  0  0  0  0
   -6.2970   37.8050    8.7590 C   0  0  0  0  0  3  0  0  0  0  0  0
   -7.1120   37.3990    9.8490 C   0  0  0  0  0  0  0  0  0  0  0  0
   -4.2760   38.9000    6.9050 C   0  0  0  0  0  3  0  0  0  0  0  0
   -5.2500   40.9730    5.1570 C   0  0  0  0  0  3  0  0  0  0  0  0
   -8.8200   37.9600   11.4370 C   0  0  0  0  0  0  0  0  0  0  0  0
   -3.5670   39.3230    5.8130 C   0  0  0  0  0  0  0  0  0  0  0  0
   -4.0500   40.3400    4.9430 C   0  0  0  0  0  0  0  0  0  0  0  0
   -7.0360   36.1050   10.4100 C   0  0  0  0  0  3  0  0  0  0  0  0
   -8.7220   36.6720   11.9760 C   0  0  0  0  0  0  0  0  0  0  0  0
   -7.8350   35.7210   11.4780 C   0  0  0  0  0  3  0  0  0  0  0  0
   -2.0550   39.6470    4.1930 C   0  0  0  0  0  2  0  0  0  0  0  0
  -10.2850   37.7970   13.1180 C   0  0  0  0  0  2  0  0  0  0  0  0
  1 18  1  0  0  0  0
  2 23  1  0  0  0  0
  2 19  1  0  0  0  0
  3 24  1  0  0  0  0
  4 24  1  0  0  0  0
  5 12  1  0  0  0  0
  6  5  1  0  0  0  0
  7  5  1  0  0  0  0
  7 13  1  6  0  0  0
  8  6  1  0  0  0  0
  9  7  1  0  0  0  0
 10  8  1  0  0  0  0
 10  9  2  0  0  0  0
 11 17  1  0  0  0  0
 12 11  2  0  0  0  0
 13 14  2  0  0  0  0
 14 11  1  0  0  0  0
 14 20  1  0  0  0  0
 15  9  1  0  0  0  0
 16 10  1  0  0  0  0
 17 21  2  0  0  0  0
 17  3  1  0  0  0  0
 18 15  2  0  0  0  0
 19 16  2  0  0  0  0
 19 18  1  0  0  0  0
 20 22  2  0  0  0  0
 21  4  1  0  0  0  0
 22 21  1  0  0  0  0
 23  1  1  0  0  0  0
M  END
>  <MODEL>
14

>  <REMARK>
 VINA RESULT:    -7.914     38.197     38.665
 INTER + INTRA:          -7.914
 INTER:                  -7.914
 INTRA:                   0.000
 UNBOUND:                 0.000
  0 active torsions:
  status: ('A' for Active; 'I' for Inactive)

>  <TORSDO>
F 0

$$$$
./Coptisina.pdbqt
 OpenBabel10282519553D

 24 29  0  0  1  0  0  0  0  0999 V2000
   -1.8070   30.9830    8.5810 O   0  0  0  0  0  0  0  0  0  0  0  0
   -0.9560   31.4730    6.4340 O   0  0  0  0  0  0  0  0  0  0  0  0
   -7.6090   39.0060    9.9720 O   0  0  0  0  0  0  0  0  0  0  0  0
   -9.1970   38.2530   11.5510 O   0  0  0  0  0  0  0  0  0  0  0  0
   -4.6640   36.3500    8.2040 N   0  0  0  0  0  0  0  0  0  0  0  0
   -3.6790   36.7910    7.1870 C   0  0  0  0  0  2  0  0  0  0  0  0
   -4.6530   35.0060    8.6140 C   0  0  2  0  0  3  0  0  0  0  0  0
   -3.5120   35.7060    6.1190 C   0  0  0  0  0  2  0  0  0  0  0  0
   -3.6430   34.1250    8.0310 C   0  0  0  0  0  0  0  0  0  0  0  0
   -3.1020   34.4270    6.7760 C   0  0  0  0  0  0  0  0  0  0  0  0
   -6.5050   36.8200    9.6560 C   0  0  0  0  0  0  0  0  0  0  0  0
   -5.5450   37.2250    8.7020 C   0  0  0  0  0  3  0  0  0  0  0  0
   -5.5950   34.5740    9.5200 C   0  0  0  0  0  3  0  0  0  0  0  0
   -6.5540   35.4560   10.0860 C   0  0  0  0  0  0  0  0  0  0  0  0
   -3.2420   32.9680    8.7420 C   0  0  0  0  0  3  0  0  0  0  0  0
   -2.1830   33.5780    6.1330 C   0  0  0  0  0  3  0  0  0  0  0  0
   -7.4510   37.6770   10.2210 C   0  0  0  0  0  0  0  0  0  0  0  0
   -2.3410   32.1510    8.1150 C   0  0  0  0  0  0  0  0  0  0  0  0
   -1.8240   32.4440    6.8220 C   0  0  0  0  0  0  0  0  0  0  0  0
   -7.5140   35.0260   11.0280 C   0  0  0  0  0  3  0  0  0  0  0  0
   -8.3900   37.2250   11.1550 C   0  0  0  0  0  0  0  0  0  0  0  0
   -8.4440   35.8980   11.5760 C   0  0  0  0  0  3  0  0  0  0  0  0
   -0.9210   30.5210    7.5320 C   0  0  0  0  0  2  0  0  0  0  0  0
   -8.7280   39.4130   10.8170 C   0  0  0  0  0  2  0  0  0  0  0  0
  2 19  1  0  0  0  0
  2 23  1  0  0  0  0
  3 17  1  0  0  0  0
  3 24  1  0  0  0  0
  5  7  1  0  0  0  0
  5 12  1  0  0  0  0
  6  5  1  0  0  0  0
  7 13  1  6  0  0  0
  8 10  1  0  0  0  0
  8  6  1  0  0  0  0
  9  7  1  0  0  0  0
  9 15  1  0  0  0  0
 10  9  2  0  0  0  0
 11 14  1  0  0  0  0
 11 17  1  0  0  0  0
 12 11  2  0  0  0  0
 13 14  2  0  0  0  0
 14 20  1  0  0  0  0
 16 10  1  0  0  0  0
 16 19  2  0  0  0  0
 17 21  2  0  0  0  0
 18  1  1  0  0  0  0
 18 15  2  0  0  0  0
 19 18  1  0  0  0  0
 20 22  2  0  0  0  0
 21  4  1  0  0  0  0
 21 22  1  0  0  0  0
 23  1  1  0  0  0  0
 24  4  1  0  0  0  0
M  END
>  <MODEL>
15

>  <REMARK>
 VINA RESULT:    -7.822     38.121     38.650
 INTER + INTRA:          -7.822
 INTER:                  -7.822
 INTRA:                   0.000
 UNBOUND:                 0.000
  0 active torsions:
  status: ('A' for Active; 'I' for Inactive)

>  <TORSDO>
F 0

$$$$
