./Donepezila.pdbqt
 OpenBabel10292511183D

 29 32  0  0  1  0  0  0  0  0999 V2000
  -34.0960   21.0960  -17.5340 C   0  0  0  0  0  2  0  0  0  0  0  0
  -34.3480   19.8280  -18.3610 C   0  0  2  0  0  3  0  0  0  0  0  0
  -35.0040   18.7280  -17.5090 C   0  0  0  0  0  2  0  0  0  0  0  0
  -35.2430   17.4730  -18.3420 C   0  0  0  0  0  2  0  0  0  0  0  0
  -33.9210   16.9520  -18.8820 N   0  0  0  0  0  4  0  0  0  0  0  0
  -33.2580   18.0160  -19.7420 C   0  0  0  0  0  2  0  0  0  0  0  0
  -33.2950   16.7320  -18.0640 H   0  0  0  0  0  0  0  0  0  0  0  0
  -33.0230   19.2850  -18.9250 C   0  0  0  0  0  2  0  0  0  0  0  0
  -34.1430   15.6830  -19.6940 C   0  0  0  0  0  2  0  0  0  0  0  0
  -33.2970   14.5870  -19.1210 C   0  0  0  0  0  0  0  0  0  0  0  0
  -33.7630   13.8300  -18.0460 C   0  0  0  0  0  3  0  0  0  0  0  0
  -32.9680   12.8130  -17.5200 C   0  0  0  0  0  3  0  0  0  0  0  0
  -31.7120   12.5600  -18.0680 C   0  0  0  0  0  3  0  0  0  0  0  0
  -31.2530   13.3110  -19.1510 C   0  0  0  0  0  3  0  0  0  0  0  0
  -32.0450   14.3240  -19.6840 C   0  0  0  0  0  3  0  0  0  0  0  0
  -34.2250   20.8460  -16.0330 C   0  0  2  0  0  3  0  0  0  0  0  0
  -34.8680   22.0240  -15.2550 C   0  0  0  0  0  2  0  0  0  0  0  0
  -33.8730   22.3610  -14.1810 C   0  0  0  0  0  0  0  0  0  0  0  0
  -34.0360   23.2870  -13.1570 C   0  0  0  0  0  3  0  0  0  0  0  0
  -32.7020   21.6110  -14.3000 C   0  0  0  0  0  0  0  0  0  0  0  0
  -32.9870   23.4500  -12.2540 C   0  0  0  0  0  0  0  0  0  0  0  0
  -31.7800   22.6940  -12.3870 C   0  0  0  0  0  0  0  0  0  0  0  0
  -31.6400   21.7710  -13.4110 C   0  0  0  0  0  3  0  0  0  0  0  0
  -32.8110   20.6830  -15.4280 C   0  0  0  0  0  0  0  0  0  0  0  0
  -32.0030   19.9050  -15.8520 O   0  0  0  0  0  0  0  0  0  0  0  0
  -32.9810   24.3000  -11.2030 O   0  0  0  0  0  0  0  0  0  0  0  0
  -33.1330   25.6870  -11.4900 C   0  0  0  0  0  1  0  0  0  0  0  0
  -30.8580   22.9770  -11.4310 O   0  0  0  0  0  0  0  0  0  0  0  0
  -29.6710   23.6300  -11.8640 C   0  0  0  0  0  1  0  0  0  0  0  0
  2  1  1  1  0  0  0
  2  3  1  0  0  0  0
  4  3  1  0  0  0  0
  5  4  1  0  0  0  0
  5  7  1  0  0  0  0
  6  8  1  0  0  0  0
  6  5  1  0  0  0  0
  8  2  1  0  0  0  0
  9 10  1  0  0  0  0
  9  5  1  0  0  0  0
 10 11  1  0  0  0  0
 11 12  2  0  0  0  0
 13 12  1  0  0  0  0
 14 13  2  0  0  0  0
 15 14  1  0  0  0  0
 15 10  2  0  0  0  0
 16  1  1  6  0  0  0
 16 24  1  0  0  0  0
 16 17  1  0  0  0  0
 17 18  1  0  0  0  0
 18 19  1  0  0  0  0
 19 21  2  0  0  0  0
 20 18  2  0  0  0  0
 20 23  1  0  0  0  0
 21 26  1  0  0  0  0
 22 21  1  0  0  0  0
 22 28  1  0  0  0  0
 23 22  2  0  0  0  0
 24 20  1  0  0  0  0
 25 24  2  0  0  0  0
 27 26  1  0  0  0  0
 29 28  1  0  0  0  0
M  END
>  <MODEL>
1

>  <REMARK>
 VINA RESULT:    -8.257      0.000      0.000
 INTER + INTRA:         -11.977
 INTER:                 -11.154
 INTRA:                  -0.823
 UNBOUND:                -0.823
  6 active torsions:
  status: ('A' for Active; 'I' for Inactive)
    1  A    between atoms: O2_2  and  C16_20 
    2  A    between atoms: O3_3  and  C17_21 
    3  A    between atoms: N_4  and  C12_16 
    4  A    between atoms: C1_5  and  C2_6 
    5  A    between atoms: C2_6  and  C3_7 
    6  A    between atoms: C12_16  and  C15_19 

>  <TORSDO>
F 6

$$$$
./Donepezila.pdbqt
 OpenBabel10292511183D

 29 32  0  0  1  0  0  0  0  0999 V2000
  -34.5050   21.2870  -17.2280 C   0  0  0  0  0  2  0  0  0  0  0  0
  -34.2660   22.7580  -17.5950 C   0  0  2  0  0  3  0  0  0  0  0  0
  -35.1240   23.1790  -18.8000 C   0  0  0  0  0  2  0  0  0  0  0  0
  -34.8710   24.6410  -19.1560 C   0  0  0  0  0  2  0  0  0  0  0  0
  -33.4050   24.8420  -19.5030 N   0  0  0  0  0  4  0  0  0  0  0  0
  -32.5340   24.4470  -18.3200 C   0  0  0  0  0  2  0  0  0  0  0  0
  -33.1730   24.2230  -20.3220 H   0  0  0  0  0  0  0  0  0  0  0  0
  -32.7850   22.9880  -17.9440 C   0  0  0  0  0  2  0  0  0  0  0  0
  -33.1450   26.2930  -19.8860 C   0  0  0  0  0  2  0  0  0  0  0  0
  -32.0870   26.3310  -20.9460 C   0  0  0  0  0  0  0  0  0  0  0  0
  -31.2310   27.4290  -21.0430 C   0  0  0  0  0  3  0  0  0  0  0  0
  -30.2500   27.4550  -22.0330 C   0  0  0  0  0  3  0  0  0  0  0  0
  -30.1310   26.3880  -22.9210 C   0  0  0  0  0  3  0  0  0  0  0  0
  -30.9810   25.2860  -22.8150 C   0  0  0  0  0  3  0  0  0  0  0  0
  -31.9580   25.2520  -21.8250 C   0  0  0  0  0  3  0  0  0  0  0  0
  -34.5150   21.0590  -15.7180 C   0  0  2  0  0  3  0  0  0  0  0  0
  -34.9590   22.3000  -14.9000 C   0  0  0  0  0  2  0  0  0  0  0  0
  -33.8370   22.5410  -13.9310 C   0  0  0  0  0  0  0  0  0  0  0  0
  -33.8080   23.4840  -12.9100 C   0  0  0  0  0  3  0  0  0  0  0  0
  -32.7650   21.6750  -14.1480 C   0  0  0  0  0  0  0  0  0  0  0  0
  -32.6660   23.5450  -12.1120 C   0  0  0  0  0  0  0  0  0  0  0  0
  -31.5600   22.6690  -12.3470 C   0  0  0  0  0  0  0  0  0  0  0  0
  -31.6110   21.7310  -13.3670 C   0  0  0  0  0  3  0  0  0  0  0  0
  -33.0730   20.7560  -15.2460 C   0  0  0  0  0  0  0  0  0  0  0  0
  -32.3920   19.8980  -15.7330 O   0  0  0  0  0  0  0  0  0  0  0  0
  -32.4750   24.3950  -11.0800 O   0  0  0  0  0  0  0  0  0  0  0  0
  -32.7160   25.7770  -11.3250 C   0  0  0  0  0  1  0  0  0  0  0  0
  -30.5270   22.8620  -11.4870 O   0  0  0  0  0  0  0  0  0  0  0  0
  -29.4040   23.5760  -11.9900 C   0  0  0  0  0  1  0  0  0  0  0  0
  2  1  1  6  0  0  0
  3  2  1  0  0  0  0
  4  3  1  0  0  0  0
  5  4  1  0  0  0  0
  5  6  1  0  0  0  0
  6  8  1  0  0  0  0
  7  5  1  0  0  0  0
  8  2  1  0  0  0  0
  9  5  1  0  0  0  0
 10  9  1  0  0  0  0
 11 10  1  0  0  0  0
 12 11  2  0  0  0  0
 13 14  2  0  0  0  0
 13 12  1  0  0  0  0
 14 15  1  0  0  0  0
 15 10  2  0  0  0  0
 16  1  1  6  0  0  0
 16 24  1  0  0  0  0
 16 17  1  0  0  0  0
 17 18  1  0  0  0  0
 18 19  1  0  0  0  0
 19 21  2  0  0  0  0
 20 18  2  0  0  0  0
 20 23  1  0  0  0  0
 21 26  1  0  0  0  0
 22 21  1  0  0  0  0
 22 28  1  0  0  0  0
 23 22  2  0  0  0  0
 24 20  1  0  0  0  0
 25 24  2  0  0  0  0
 27 26  1  0  0  0  0
 29 28  1  0  0  0  0
M  END
>  <MODEL>
2

>  <REMARK>
 VINA RESULT:    -8.208      4.404      7.080
 INTER + INTRA:         -11.910
 INTER:                 -10.790
 INTRA:                  -1.120
 UNBOUND:                -0.823
  6 active torsions:
  status: ('A' for Active; 'I' for Inactive)
    1  A    between atoms: O2_2  and  C16_20 
    2  A    between atoms: O3_3  and  C17_21 
    3  A    between atoms: N_4  and  C12_16 
    4  A    between atoms: C1_5  and  C2_6 
    5  A    between atoms: C2_6  and  C3_7 
    6  A    between atoms: C12_16  and  C15_19 

>  <TORSDO>
F 6

$$$$
./Donepezila.pdbqt
 OpenBabel10292511183D

 29 32  0  0  1  0  0  0  0  0999 V2000
  -37.1010   22.9300  -13.3350 C   0  0  0  0  0  2  0  0  0  0  0  0
  -37.8940   22.5700  -14.5990 C   0  0  2  0  0  3  0  0  0  0  0  0
  -39.3310   23.1140  -14.5300 C   0  0  0  0  0  2  0  0  0  0  0  0
  -40.1070   22.7430  -15.7890 C   0  0  0  0  0  2  0  0  0  0  0  0
  -40.1620   21.2310  -15.9360 N   0  0  0  0  0  4  0  0  0  0  0  0
  -38.7510   20.6690  -16.0230 C   0  0  0  0  0  2  0  0  0  0  0  0
  -40.6380   20.8350  -15.0850 H   0  0  0  0  0  0  0  0  0  0  0  0
  -37.9560   21.0420  -14.7730 C   0  0  0  0  0  2  0  0  0  0  0  0
  -40.9580   20.8470  -17.1760 C   0  0  0  0  0  2  0  0  0  0  0  0
  -42.0340   19.8830  -16.7810 C   0  0  0  0  0  0  0  0  0  0  0  0
  -42.7260   19.1650  -17.7580 C   0  0  0  0  0  3  0  0  0  0  0  0
  -43.7250   18.2710  -17.3800 C   0  0  0  0  0  3  0  0  0  0  0  0
  -44.0310   18.0990  -16.0320 C   0  0  0  0  0  3  0  0  0  0  0  0
  -43.3300   18.8100  -15.0560 C   0  0  0  0  0  3  0  0  0  0  0  0
  -42.3270   19.7000  -15.4270 C   0  0  0  0  0  3  0  0  0  0  0  0
  -35.7680   23.6020  -13.6580 C   0  0  2  0  0  3  0  0  0  0  0  0
  -34.7420   22.6630  -14.3450 C   0  0  0  0  0  2  0  0  0  0  0  0
  -33.5180   22.7330  -13.4770 C   0  0  0  0  0  0  0  0  0  0  0  0
  -32.2850   22.1420  -13.7280 C   0  0  0  0  0  3  0  0  0  0  0  0
  -33.7340   23.5010  -12.3310 C   0  0  0  0  0  0  0  0  0  0  0  0
  -31.2690   22.3330  -12.7920 C   0  0  0  0  0  0  0  0  0  0  0  0
  -31.4970   23.1040  -11.6090 C   0  0  0  0  0  0  0  0  0  0  0  0
  -32.7320   23.6910  -11.3810 C   0  0  0  0  0  3  0  0  0  0  0  0
  -35.0940   24.0430  -12.3370 C   0  0  0  0  0  0  0  0  0  0  0  0
  -35.6460   24.7190  -11.5150 O   0  0  0  0  0  0  0  0  0  0  0  0
  -30.0160   21.8340  -12.8820 O   0  0  0  0  0  0  0  0  0  0  0  0
  -29.7260   21.0110  -14.0070 C   0  0  0  0  0  1  0  0  0  0  0  0
  -30.4080   23.1860  -10.8020 O   0  0  0  0  0  0  0  0  0  0  0  0
  -30.5600   23.9360   -9.6020 C   0  0  0  0  0  1  0  0  0  0  0  0
  2  3  1  0  0  0  0
  2  1  1  1  0  0  0
  4  3  1  0  0  0  0
  5  4  1  0  0  0  0
  5  7  1  0  0  0  0
  6  5  1  0  0  0  0
  6  8  1  0  0  0  0
  8  2  1  0  0  0  0
  9 10  1  0  0  0  0
  9  5  1  0  0  0  0
 10 15  1  0  0  0  0
 11 12  1  0  0  0  0
 11 10  2  0  0  0  0
 12 13  2  0  0  0  0
 13 14  1  0  0  0  0
 15 14  2  0  0  0  0
 16  1  1  1  0  0  0
 16 24  1  0  0  0  0
 17 16  1  0  0  0  0
 17 18  1  0  0  0  0
 18 20  1  0  0  0  0
 19 18  2  0  0  0  0
 19 21  1  0  0  0  0
 20 23  2  0  0  0  0
 21 22  2  0  0  0  0
 22 23  1  0  0  0  0
 22 28  1  0  0  0  0
 24 20  1  0  0  0  0
 24 25  2  0  0  0  0
 26 21  1  0  0  0  0
 27 26  1  0  0  0  0
 28 29  1  0  0  0  0
M  END
>  <MODEL>
3

>  <REMARK>
 VINA RESULT:    -7.985      5.513      7.313
 INTER + INTRA:         -11.609
 INTER:                 -10.853
 INTRA:                  -0.756
 UNBOUND:                -0.823
  6 active torsions:
  status: ('A' for Active; 'I' for Inactive)
    1  A    between atoms: O2_2  and  C16_20 
    2  A    between atoms: O3_3  and  C17_21 
    3  A    between atoms: N_4  and  C12_16 
    4  A    between atoms: C1_5  and  C2_6 
    5  A    between atoms: C2_6  and  C3_7 
    6  A    between atoms: C12_16  and  C15_19 

>  <TORSDO>
F 6

$$$$
./Donepezila.pdbqt
 OpenBabel10292511183D

 29 32  0  0  1  0  0  0  0  0999 V2000
  -32.7970   20.9950  -18.7280 C   0  0  0  0  0  2  0  0  0  0  0  0
  -33.3830   21.3220  -17.3470 C   0  0  2  0  0  3  0  0  0  0  0  0
  -33.4610   22.8420  -17.1200 C   0  0  0  0  0  2  0  0  0  0  0  0
  -34.0380   23.1500  -15.7420 C   0  0  0  0  0  2  0  0  0  0  0  0
  -33.1590   22.5370  -14.6640 N   0  0  0  0  0  4  0  0  0  0  0  0
  -33.0780   21.0310  -14.8570 C   0  0  0  0  0  2  0  0  0  0  0  0
  -32.1940   22.9470  -14.7540 H   0  0  0  0  0  0  0  0  0  0  0  0
  -32.5120   20.7050  -16.2390 C   0  0  0  0  0  2  0  0  0  0  0  0
  -33.7110   22.8610  -13.2820 C   0  0  0  0  0  2  0  0  0  0  0  0
  -32.6760   23.6260  -12.5150 C   0  0  0  0  0  0  0  0  0  0  0  0
  -31.3920   23.1030  -12.3580 C   0  0  0  0  0  3  0  0  0  0  0  0
  -30.4360   23.8220  -11.6420 C   0  0  0  0  0  3  0  0  0  0  0  0
  -30.7670   25.0560  -11.0860 C   0  0  0  0  0  3  0  0  0  0  0  0
  -32.0490   25.5820  -11.2540 C   0  0  0  0  0  3  0  0  0  0  0  0
  -33.0060   24.8710  -11.9730 C   0  0  0  0  0  3  0  0  0  0  0  0
  -33.5570   19.8700  -19.4290 C   0  0  2  0  0  3  0  0  0  0  0  0
  -34.4890   19.0630  -18.4880 C   0  0  0  0  0  2  0  0  0  0  0  0
  -34.0590   17.6340  -18.6560 C   0  0  0  0  0  0  0  0  0  0  0  0
  -34.6600   16.5130  -18.0970 C   0  0  0  0  0  3  0  0  0  0  0  0
  -32.9400   17.5200  -19.4830 C   0  0  0  0  0  0  0  0  0  0  0  0
  -34.1050   15.2660  -18.3810 C   0  0  0  0  0  0  0  0  0  0  0  0
  -32.9470   15.1510  -19.2140 C   0  0  0  0  0  0  0  0  0  0  0  0
  -32.3660   16.2820  -19.7670 C   0  0  0  0  0  3  0  0  0  0  0  0
  -32.5380   18.8400  -19.9730 C   0  0  0  0  0  0  0  0  0  0  0  0
  -31.6150   19.1410  -20.6760 O   0  0  0  0  0  0  0  0  0  0  0  0
  -34.5650   14.0800  -17.9250 O   0  0  0  0  0  0  0  0  0  0  0  0
  -34.7330   13.9480  -16.5170 C   0  0  0  0  0  1  0  0  0  0  0  0
  -32.5310   13.8700  -19.3850 O   0  0  0  0  0  0  0  0  0  0  0  0
  -32.3190   13.4430  -20.7250 C   0  0  0  0  0  1  0  0  0  0  0  0
  2  1  1  6  0  0  0
  2  3  1  0  0  0  0
  2  8  1  0  0  0  0
  3  4  1  0  0  0  0
  4  5  1  0  0  0  0
  5  9  1  0  0  0  0
  6  5  1  0  0  0  0
  7  5  1  0  0  0  0
  8  6  1  0  0  0  0
  9 10  1  0  0  0  0
 10 11  2  0  0  0  0
 10 15  1  0  0  0  0
 11 12  1  0  0  0  0
 12 13  2  0  0  0  0
 14 13  1  0  0  0  0
 15 14  2  0  0  0  0
 16  1  1  1  0  0  0
 16 17  1  0  0  0  0
 18 17  1  0  0  0  0
 18 19  1  0  0  0  0
 20 18  2  0  0  0  0
 21 19  2  0  0  0  0
 21 26  1  0  0  0  0
 22 21  1  0  0  0  0
 23 20  1  0  0  0  0
 23 22  2  0  0  0  0
 24 20  1  0  0  0  0
 24 16  1  0  0  0  0
 25 24  2  0  0  0  0
 26 27  1  0  0  0  0
 28 22  1  0  0  0  0
 29 28  1  0  0  0  0
M  END
>  <MODEL>
4

>  <REMARK>
 VINA RESULT:    -7.848      3.453      9.316
 INTER + INTRA:         -11.423
 INTER:                 -10.553
 INTRA:                  -0.870
 UNBOUND:                -0.823
  6 active torsions:
  status: ('A' for Active; 'I' for Inactive)
    1  A    between atoms: O2_2  and  C16_20 
    2  A    between atoms: O3_3  and  C17_21 
    3  A    between atoms: N_4  and  C12_16 
    4  A    between atoms: C1_5  and  C2_6 
    5  A    between atoms: C2_6  and  C3_7 
    6  A    between atoms: C12_16  and  C15_19 

>  <TORSDO>
F 6

$$$$
./Donepezila.pdbqt
 OpenBabel10292511183D

 29 32  0  0  1  0  0  0  0  0999 V2000
  -35.4140   20.4990  -16.1590 C   0  0  0  0  0  2  0  0  0  0  0  0
  -35.1020   19.6040  -17.3670 C   0  0  2  0  0  3  0  0  0  0  0  0
  -36.3020   18.7110  -17.7250 C   0  0  0  0  0  2  0  0  0  0  0  0
  -35.9750   17.8250  -18.9220 C   0  0  0  0  0  2  0  0  0  0  0  0
  -34.7830   16.9390  -18.5990 N   0  0  0  0  0  4  0  0  0  0  0  0
  -33.5760   17.7990  -18.2570 C   0  0  0  0  0  2  0  0  0  0  0  0
  -35.0310   16.3460  -17.7650 H   0  0  0  0  0  0  0  0  0  0  0  0
  -33.8920   18.7020  -17.0650 C   0  0  0  0  0  2  0  0  0  0  0  0
  -34.4630   16.0300  -19.7780 C   0  0  0  0  0  2  0  0  0  0  0  0
  -33.5950   14.9050  -19.3000 C   0  0  0  0  0  0  0  0  0  0  0  0
  -34.0190   14.0900  -18.2510 C   0  0  0  0  0  3  0  0  0  0  0  0
  -33.2050   13.0460  -17.8140 C   0  0  0  0  0  3  0  0  0  0  0  0
  -31.9730   12.8250  -18.4250 C   0  0  0  0  0  3  0  0  0  0  0  0
  -31.5560   13.6350  -19.4820 C   0  0  0  0  0  3  0  0  0  0  0  0
  -32.3670   14.6750  -19.9260 C   0  0  0  0  0  3  0  0  0  0  0  0
  -34.3700   21.5970  -15.9650 C   0  0  2  0  0  3  0  0  0  0  0  0
  -33.0850   21.1180  -15.2390 C   0  0  0  0  0  2  0  0  0  0  0  0
  -32.9390   22.0450  -14.0670 C   0  0  0  0  0  0  0  0  0  0  0  0
  -31.8810   22.0880  -13.1660 C   0  0  0  0  0  3  0  0  0  0  0  0
  -34.0190   22.9240  -13.9590 C   0  0  0  0  0  0  0  0  0  0  0  0
  -31.9350   23.0330  -12.1420 C   0  0  0  0  0  0  0  0  0  0  0  0
  -33.0510   23.9200  -12.0220 C   0  0  0  0  0  0  0  0  0  0  0  0
  -34.0930   23.8660  -12.9340 C   0  0  0  0  0  3  0  0  0  0  0  0
  -34.9630   22.6980  -15.0550 C   0  0  0  0  0  0  0  0  0  0  0  0
  -36.0110   23.2370  -15.2770 O   0  0  0  0  0  0  0  0  0  0  0  0
  -30.9940   23.2110  -11.1890 O   0  0  0  0  0  0  0  0  0  0  0  0
  -29.7410   23.7420  -11.6070 C   0  0  0  0  0  1  0  0  0  0  0  0
  -32.9500   24.7720  -10.9690 O   0  0  0  0  0  0  0  0  0  0  0  0
  -32.6960   26.1380  -11.2770 C   0  0  0  0  0  1  0  0  0  0  0  0
  2  8  1  0  0  0  0
  2  1  1  1  0  0  0
  3  2  1  0  0  0  0
  4  5  1  0  0  0  0
  4  3  1  0  0  0  0
  5  6  1  0  0  0  0
  5  7  1  0  0  0  0
  6  8  1  0  0  0  0
  9 10  1  0  0  0  0
  9  5  1  0  0  0  0
 10 11  1  0  0  0  0
 11 12  2  0  0  0  0
 13 12  1  0  0  0  0
 14 13  2  0  0  0  0
 15 14  1  0  0  0  0
 15 10  2  0  0  0  0
 16  1  1  1  0  0  0
 16 17  1  0  0  0  0
 16 24  1  0  0  0  0
 17 18  1  0  0  0  0
 18 20  2  0  0  0  0
 18 19  1  0  0  0  0
 19 21  2  0  0  0  0
 20 23  1  0  0  0  0
 21 22  1  0  0  0  0
 21 26  1  0  0  0  0
 22 28  1  0  0  0  0
 23 22  2  0  0  0  0
 24 20  1  0  0  0  0
 25 24  2  0  0  0  0
 27 26  1  0  0  0  0
 29 28  1  0  0  0  0
M  END
>  <MODEL>
5

>  <REMARK>
 VINA RESULT:    -7.825      1.276      2.142
 INTER + INTRA:         -11.392
 INTER:                 -11.021
 INTRA:                  -0.371
 UNBOUND:                -0.823
  6 active torsions:
  status: ('A' for Active; 'I' for Inactive)
    1  A    between atoms: O2_2  and  C16_20 
    2  A    between atoms: O3_3  and  C17_21 
    3  A    between atoms: N_4  and  C12_16 
    4  A    between atoms: C1_5  and  C2_6 
    5  A    between atoms: C2_6  and  C3_7 
    6  A    between atoms: C12_16  and  C15_19 

>  <TORSDO>
F 6

$$$$
./Donepezila.pdbqt
 OpenBabel10292511183D

 29 32  0  0  1  0  0  0  0  0999 V2000
  -45.3220   28.7570   -1.4620 C   0  0  0  0  0  2  0  0  0  0  0  0
  -45.1230   30.0900   -0.7280 C   0  0  2  0  0  3  0  0  0  0  0  0
  -44.1770   31.0200   -1.5060 C   0  0  0  0  0  2  0  0  0  0  0  0
  -43.9850   32.3370   -0.7620 C   0  0  0  0  0  2  0  0  0  0  0  0
  -43.3910   32.0720    0.6120 N   0  0  0  0  0  4  0  0  0  0  0  0
  -44.3170   31.1670    1.4100 C   0  0  0  0  0  2  0  0  0  0  0  0
  -42.4650   31.5890    0.4830 H   0  0  0  0  0  0  0  0  0  0  0  0
  -44.5290   29.8460    0.6700 C   0  0  0  0  0  2  0  0  0  0  0  0
  -43.1700   33.3830    1.3560 C   0  0  0  0  0  2  0  0  0  0  0  0
  -41.9170   33.2720    2.1690 C   0  0  0  0  0  0  0  0  0  0  0  0
  -40.6700   33.4080    1.5580 C   0  0  0  0  0  3  0  0  0  0  0  0
  -39.5100   33.3030    2.3240 C   0  0  0  0  0  3  0  0  0  0  0  0
  -39.6010   33.0610    3.6930 C   0  0  0  0  0  3  0  0  0  0  0  0
  -40.8490   32.9360    4.3030 C   0  0  0  0  0  3  0  0  0  0  0  0
  -42.0110   33.0460    3.5450 C   0  0  0  0  0  3  0  0  0  0  0  0
  -44.0910   28.3500   -2.2710 C   0  0  2  0  0  3  0  0  0  0  0  0
  -44.3930   28.0490   -3.7620 C   0  0  0  0  0  2  0  0  0  0  0  0
  -43.8630   26.6620   -3.9870 C   0  0  0  0  0  0  0  0  0  0  0  0
  -43.8050   25.9790   -5.1970 C   0  0  0  0  0  3  0  0  0  0  0  0
  -43.3930   26.0850   -2.8060 C   0  0  0  0  0  0  0  0  0  0  0  0
  -43.2690   24.6920   -5.1930 C   0  0  0  0  0  0  0  0  0  0  0  0
  -42.8040   24.0950   -3.9790 C   0  0  0  0  0  0  0  0  0  0  0  0
  -42.8650   24.7950   -2.7840 C   0  0  0  0  0  3  0  0  0  0  0  0
  -43.5260   27.0300   -1.6950 C   0  0  0  0  0  0  0  0  0  0  0  0
  -43.2580   26.8830   -0.5360 O   0  0  0  0  0  0  0  0  0  0  0  0
  -43.1350   23.8950   -6.2760 O   0  0  0  0  0  0  0  0  0  0  0  0
  -43.5410   24.4330   -7.5300 C   0  0  0  0  0  1  0  0  0  0  0  0
  -42.3190   22.8380   -4.1490 O   0  0  0  0  0  0  0  0  0  0  0  0
  -40.9910   22.6010   -3.6950 C   0  0  0  0  0  1  0  0  0  0  0  0
  2  1  1  6  0  0  0
  2  8  1  0  0  0  0
  3  4  1  0  0  0  0
  3  2  1  0  0  0  0
  4  5  1  0  0  0  0
  5  9  1  0  0  0  0
  5  6  1  0  0  0  0
  7  5  1  0  0  0  0
  8  6  1  0  0  0  0
  9 10  1  0  0  0  0
 10 15  1  0  0  0  0
 11 10  2  0  0  0  0
 11 12  1  0  0  0  0
 12 13  2  0  0  0  0
 13 14  1  0  0  0  0
 15 14  2  0  0  0  0
 16 24  1  0  0  0  0
 16  1  1  1  0  0  0
 17 16  1  0  0  0  0
 18 17  1  0  0  0  0
 18 20  1  0  0  0  0
 19 21  1  0  0  0  0
 19 18  2  0  0  0  0
 20 23  2  0  0  0  0
 20 24  1  0  0  0  0
 21 22  2  0  0  0  0
 22 23  1  0  0  0  0
 24 25  2  0  0  0  0
 26 21  1  0  0  0  0
 27 26  1  0  0  0  0
 28 22  1  0  0  0  0
 28 29  1  0  0  0  0
M  END
>  <MODEL>
6

>  <REMARK>
 VINA RESULT:    -7.807     15.790     22.156
 INTER + INTRA:         -11.368
 INTER:                 -10.507
 INTRA:                  -0.862
 UNBOUND:                -0.823
  6 active torsions:
  status: ('A' for Active; 'I' for Inactive)
    1  A    between atoms: O2_2  and  C16_20 
    2  A    between atoms: O3_3  and  C17_21 
    3  A    between atoms: N_4  and  C12_16 
    4  A    between atoms: C1_5  and  C2_6 
    5  A    between atoms: C2_6  and  C3_7 
    6  A    between atoms: C12_16  and  C15_19 

>  <TORSDO>
F 6

$$$$
./Donepezila.pdbqt
 OpenBabel10292511183D

 29 32  0  0  1  0  0  0  0  0999 V2000
  -35.4430   17.2000  -18.0420 C   0  0  0  0  0  2  0  0  0  0  0  0
  -34.4680   16.0280  -18.2190 C   0  0  2  0  0  3  0  0  0  0  0  0
  -34.4990   15.4890  -19.6590 C   0  0  0  0  0  2  0  0  0  0  0  0
  -33.5300   14.3220  -19.8180 C   0  0  0  0  0  2  0  0  0  0  0  0
  -33.9120   13.2000  -18.8660 N   0  0  0  0  0  4  0  0  0  0  0  0
  -33.8730   13.7030  -17.4310 C   0  0  0  0  0  2  0  0  0  0  0  0
  -34.8920   12.8930  -19.0960 H   0  0  0  0  0  0  0  0  0  0  0  0
  -34.8310   14.8820  -17.2590 C   0  0  0  0  0  2  0  0  0  0  0  0
  -32.9670   12.0180  -19.0340 C   0  0  0  0  0  2  0  0  0  0  0  0
  -31.6150   12.4020  -18.5170 C   0  0  0  0  0  0  0  0  0  0  0  0
  -30.7900   13.2410  -19.2670 C   0  0  0  0  0  3  0  0  0  0  0  0
  -29.5330   13.5930  -18.7780 C   0  0  0  0  0  3  0  0  0  0  0  0
  -29.1060   13.1040  -17.5440 C   0  0  0  0  0  3  0  0  0  0  0  0
  -29.9380   12.2740  -16.7910 C   0  0  0  0  0  3  0  0  0  0  0  0
  -31.1960   11.9240  -17.2720 C   0  0  0  0  0  3  0  0  0  0  0  0
  -34.7350   18.5530  -18.0680 C   0  0  2  0  0  3  0  0  0  0  0  0
  -33.3700   18.5610  -17.3300 C   0  0  0  0  0  2  0  0  0  0  0  0
  -33.4840   19.6730  -16.3270 C   0  0  0  0  0  0  0  0  0  0  0  0
  -32.4790   20.1430  -15.4890 C   0  0  0  0  0  3  0  0  0  0  0  0
  -34.7610   20.2360  -16.3140 C   0  0  0  0  0  0  0  0  0  0  0  0
  -32.7900   21.1940  -14.6260 C   0  0  0  0  0  0  0  0  0  0  0  0
  -34.1040   21.7590  -14.6020 C   0  0  0  0  0  0  0  0  0  0  0  0
  -35.0900   21.2790  -15.4500 C   0  0  0  0  0  3  0  0  0  0  0  0
  -35.6070   19.5910  -17.3210 C   0  0  0  0  0  0  0  0  0  0  0  0
  -36.7610   19.7850  -17.5810 O   0  0  0  0  0  0  0  0  0  0  0  0
  -31.9340   21.7710  -13.7540 O   0  0  0  0  0  0  0  0  0  0  0  0
  -30.6620   21.1540  -13.5900 C   0  0  0  0  0  1  0  0  0  0  0  0
  -34.2400   22.7680  -13.7020 O   0  0  0  0  0  0  0  0  0  0  0  0
  -35.4690   23.4830  -13.7290 C   0  0  0  0  0  1  0  0  0  0  0  0
  2  1  1  6  0  0  0
  2  8  1  0  0  0  0
  3  2  1  0  0  0  0
  4  3  1  0  0  0  0
  4  5  1  0  0  0  0
  5  6  1  0  0  0  0
  6  8  1  0  0  0  0
  7  5  1  0  0  0  0
  9  5  1  0  0  0  0
  9 10  1  0  0  0  0
 10 15  1  0  0  0  0
 11 12  1  0  0  0  0
 11 10  2  0  0  0  0
 12 13  2  0  0  0  0
 13 14  1  0  0  0  0
 15 14  2  0  0  0  0
 16  1  1  1  0  0  0
 16 17  1  0  0  0  0
 16 24  1  0  0  0  0
 17 18  1  0  0  0  0
 18 20  2  0  0  0  0
 18 19  1  0  0  0  0
 19 21  2  0  0  0  0
 20 23  1  0  0  0  0
 21 22  1  0  0  0  0
 21 26  1  0  0  0  0
 22 28  1  0  0  0  0
 23 22  2  0  0  0  0
 24 20  1  0  0  0  0
 25 24  2  0  0  0  0
 26 27  1  0  0  0  0
 29 28  1  0  0  0  0
M  END
>  <MODEL>
7

>  <REMARK>
 VINA RESULT:    -7.703      1.932      3.988
 INTER + INTRA:         -11.227
 INTER:                 -11.018
 INTRA:                  -0.209
 UNBOUND:                -0.823
  6 active torsions:
  status: ('A' for Active; 'I' for Inactive)
    1  A    between atoms: O2_2  and  C16_20 
    2  A    between atoms: O3_3  and  C17_21 
    3  A    between atoms: N_4  and  C12_16 
    4  A    between atoms: C1_5  and  C2_6 
    5  A    between atoms: C2_6  and  C3_7 
    6  A    between atoms: C12_16  and  C15_19 

>  <TORSDO>
F 6

$$$$
./Donepezila.pdbqt
 OpenBabel10292511183D

 29 32  0  0  1  0  0  0  0  0999 V2000
  -38.0440   22.3450  -14.6800 C   0  0  0  0  0  2  0  0  0  0  0  0
  -37.1460   23.3240  -13.9090 C   0  0  2  0  0  3  0  0  0  0  0  0
  -35.7000   23.2850  -14.4320 C   0  0  0  0  0  2  0  0  0  0  0  0
  -34.8210   24.2570  -13.6530 C   0  0  0  0  0  2  0  0  0  0  0  0
  -34.8200   23.8870  -12.1790 N   0  0  0  0  0  4  0  0  0  0  0  0
  -36.2390   23.9340  -11.6330 C   0  0  0  0  0  2  0  0  0  0  0  0
  -34.4490   22.9060  -12.0860 H   0  0  0  0  0  0  0  0  0  0  0  0
  -37.1360   22.9730  -12.4110 C   0  0  0  0  0  2  0  0  0  0  0  0
  -33.9230   24.8350  -11.3940 C   0  0  0  0  0  2  0  0  0  0  0  0
  -32.4940   24.4420  -11.6130 C   0  0  0  0  0  0  0  0  0  0  0  0
  -31.4720   25.3690  -11.4050 C   0  0  0  0  0  3  0  0  0  0  0  0
  -30.1460   24.9930  -11.6110 C   0  0  0  0  0  3  0  0  0  0  0  0
  -29.8480   23.6960  -12.0240 C   0  0  0  0  0  3  0  0  0  0  0  0
  -30.8710   22.7680  -12.2200 C   0  0  0  0  0  3  0  0  0  0  0  0
  -32.1970   23.1360  -12.0110 C   0  0  0  0  0  3  0  0  0  0  0  0
  -39.2520   21.8970  -13.8600 C   0  0  2  0  0  3  0  0  0  0  0  0
  -39.7970   20.5010  -14.2590 C   0  0  0  0  0  2  0  0  0  0  0  0
  -41.2490   20.7300  -14.5680 C   0  0  0  0  0  0  0  0  0  0  0  0
  -42.1970   19.7620  -14.8770 C   0  0  0  0  0  3  0  0  0  0  0  0
  -41.5890   22.0830  -14.5010 C   0  0  0  0  0  0  0  0  0  0  0  0
  -43.5020   20.1860  -15.1280 C   0  0  0  0  0  0  0  0  0  0  0  0
  -43.8450   21.5730  -15.0780 C   0  0  0  0  0  0  0  0  0  0  0  0
  -42.8860   22.5230  -14.7620 C   0  0  0  0  0  3  0  0  0  0  0  0
  -40.4220   22.8770  -14.1120 C   0  0  0  0  0  0  0  0  0  0  0  0
  -40.3210   24.0650  -13.9800 O   0  0  0  0  0  0  0  0  0  0  0  0
  -44.5420   19.3800  -15.4380 O   0  0  0  0  0  0  0  0  0  0  0  0
  -44.4270   18.0070  -15.0770 C   0  0  0  0  0  1  0  0  0  0  0  0
  -45.1530   21.8150  -15.3540 O   0  0  0  0  0  0  0  0  0  0  0  0
  -45.8910   22.5250  -14.3660 C   0  0  0  0  0  1  0  0  0  0  0  0
  2  1  1  6  0  0  0
  2  8  1  0  0  0  0
  3  2  1  0  0  0  0
  3  4  1  0  0  0  0
  4  5  1  0  0  0  0
  5  7  1  0  0  0  0
  5  6  1  0  0  0  0
  5  9  1  0  0  0  0
  8  6  1  0  0  0  0
 10 11  1  0  0  0  0
 10  9  1  0  0  0  0
 12 11  2  0  0  0  0
 13 12  1  0  0  0  0
 14 13  2  0  0  0  0
 14 15  1  0  0  0  0
 15 10  2  0  0  0  0
 16  1  1  6  0  0  0
 17 16  1  0  0  0  0
 18 20  1  0  0  0  0
 18 17  1  0  0  0  0
 19 18  2  0  0  0  0
 20 24  1  0  0  0  0
 21 22  2  0  0  0  0
 21 19  1  0  0  0  0
 22 23  1  0  0  0  0
 23 20  2  0  0  0  0
 24 25  2  0  0  0  0
 24 16  1  0  0  0  0
 26 21  1  0  0  0  0
 26 27  1  0  0  0  0
 28 22  1  0  0  0  0
 28 29  1  0  0  0  0
M  END
>  <MODEL>
8

>  <REMARK>
 VINA RESULT:    -7.682      7.106     10.807
 INTER + INTRA:         -11.200
 INTER:                 -10.646
 INTRA:                  -0.553
 UNBOUND:                -0.823
  6 active torsions:
  status: ('A' for Active; 'I' for Inactive)
    1  A    between atoms: O2_2  and  C16_20 
    2  A    between atoms: O3_3  and  C17_21 
    3  A    between atoms: N_4  and  C12_16 
    4  A    between atoms: C1_5  and  C2_6 
    5  A    between atoms: C2_6  and  C3_7 
    6  A    between atoms: C12_16  and  C15_19 

>  <TORSDO>
F 6

$$$$
./Donepezila.pdbqt
 OpenBabel10292511183D

 29 32  0  0  1  0  0  0  0  0999 V2000
  -36.4540   23.6940  -15.0430 C   0  0  0  0  0  2  0  0  0  0  0  0
  -37.9010   23.2090  -15.2120 C   0  0  2  0  0  3  0  0  0  0  0  0
  -38.8530   24.3830  -15.4950 C   0  0  0  0  0  2  0  0  0  0  0  0
  -40.2860   23.8850  -15.6550 C   0  0  0  0  0  2  0  0  0  0  0  0
  -40.7350   23.1860  -14.3820 N   0  0  0  0  0  4  0  0  0  0  0  0
  -39.8180   22.0090  -14.0880 C   0  0  0  0  0  2  0  0  0  0  0  0
  -40.6750   23.8750  -13.5890 H   0  0  0  0  0  0  0  0  0  0  0  0
  -38.3750   22.4900  -13.9370 C   0  0  0  0  0  2  0  0  0  0  0  0
  -42.1750   22.7080  -14.5200 C   0  0  0  0  0  2  0  0  0  0  0  0
  -43.0400   23.5080  -13.5950 C   0  0  0  0  0  0  0  0  0  0  0  0
  -42.9860   23.2890  -12.2180 C   0  0  0  0  0  3  0  0  0  0  0  0
  -43.7950   24.0390  -11.3670 C   0  0  0  0  0  3  0  0  0  0  0  0
  -44.6550   25.0000  -11.8940 C   0  0  0  0  0  3  0  0  0  0  0  0
  -44.6990   25.2250  -13.2700 C   0  0  0  0  0  3  0  0  0  0  0  0
  -43.8890   24.4840  -14.1250 C   0  0  0  0  0  3  0  0  0  0  0  0
  -35.7660   23.0600  -13.8360 C   0  0  2  0  0  3  0  0  0  0  0  0
  -35.1210   24.0880  -12.8700 C   0  0  0  0  0  2  0  0  0  0  0  0
  -33.6870   23.6580  -12.7550 C   0  0  0  0  0  0  0  0  0  0  0  0
  -32.7180   24.2040  -11.9210 C   0  0  0  0  0  3  0  0  0  0  0  0
  -33.3930   22.5880  -13.6030 C   0  0  0  0  0  0  0  0  0  0  0  0
  -31.4370   23.6540  -11.9630 C   0  0  0  0  0  0  0  0  0  0  0  0
  -31.1330   22.5700  -12.8440 C   0  0  0  0  0  0  0  0  0  0  0  0
  -32.1150   22.0350  -13.6640 C   0  0  0  0  0  3  0  0  0  0  0  0
  -34.5960   22.1780  -14.3320 C   0  0  0  0  0  0  0  0  0  0  0  0
  -34.7260   21.3210  -15.1600 O   0  0  0  0  0  0  0  0  0  0  0  0
  -30.3850   24.0610  -11.2190 O   0  0  0  0  0  0  0  0  0  0  0  0
  -30.4670   23.8540   -9.8120 C   0  0  0  0  0  1  0  0  0  0  0  0
  -29.8410   22.1580  -12.7660 O   0  0  0  0  0  0  0  0  0  0  0  0
  -29.4350   21.1560  -13.6910 C   0  0  0  0  0  1  0  0  0  0  0  0
  2  1  1  1  0  0  0
  2  8  1  0  0  0  0
  3  2  1  0  0  0  0
  4  3  1  0  0  0  0
  4  5  1  0  0  0  0
  5  6  1  0  0  0  0
  5  7  1  0  0  0  0
  6  8  1  0  0  0  0
  9  5  1  0  0  0  0
  9 10  1  0  0  0  0
 10 11  1  0  0  0  0
 11 12  2  0  0  0  0
 13 12  1  0  0  0  0
 14 13  2  0  0  0  0
 15 10  2  0  0  0  0
 15 14  1  0  0  0  0
 16  1  1  6  0  0  0
 16 17  1  0  0  0  0
 17 18  1  0  0  0  0
 18 19  1  0  0  0  0
 20 18  2  0  0  0  0
 21 19  2  0  0  0  0
 21 26  1  0  0  0  0
 22 28  1  0  0  0  0
 22 21  1  0  0  0  0
 23 20  1  0  0  0  0
 23 22  2  0  0  0  0
 24 16  1  0  0  0  0
 24 20  1  0  0  0  0
 25 24  2  0  0  0  0
 26 27  1  0  0  0  0
 29 28  1  0  0  0  0
M  END
>  <MODEL>
9

>  <REMARK>
 VINA RESULT:    -7.547      5.780      9.161
 INTER + INTRA:         -11.017
 INTER:                 -10.182
 INTRA:                  -0.835
 UNBOUND:                -0.823
  6 active torsions:
  status: ('A' for Active; 'I' for Inactive)
    1  A    between atoms: O2_2  and  C16_20 
    2  A    between atoms: O3_3  and  C17_21 
    3  A    between atoms: N_4  and  C12_16 
    4  A    between atoms: C1_5  and  C2_6 
    5  A    between atoms: C2_6  and  C3_7 
    6  A    between atoms: C12_16  and  C15_19 

>  <TORSDO>
F 6

$$$$
./Donepezila.pdbqt
 OpenBabel10292511183D

 29 32  0  0  1  0  0  0  0  0999 V2000
  -34.7540   19.6010  -16.8210 C   0  0  0  0  0  2  0  0  0  0  0  0
  -34.3800   18.7520  -18.0440 C   0  0  2  0  0  3  0  0  0  0  0  0
  -34.1220   17.2880  -17.6490 C   0  0  0  0  0  2  0  0  0  0  0  0
  -33.7460   16.4600  -18.8720 C   0  0  0  0  0  2  0  0  0  0  0  0
  -32.4880   17.0240  -19.5120 N   0  0  0  0  0  4  0  0  0  0  0  0
  -32.7220   18.4680  -19.9280 C   0  0  0  0  0  2  0  0  0  0  0  0
  -31.7140   16.9920  -18.8000 H   0  0  0  0  0  0  0  0  0  0  0  0
  -33.1120   19.3100  -18.7130 C   0  0  0  0  0  2  0  0  0  0  0  0
  -32.0870   16.1880  -20.7210 C   0  0  0  0  0  2  0  0  0  0  0  0
  -31.2610   15.0290  -20.2550 C   0  0  0  0  0  0  0  0  0  0  0  0
  -29.9580   15.2350  -19.8000 C   0  0  0  0  0  3  0  0  0  0  0  0
  -29.1970   14.1500  -19.3680 C   0  0  0  0  0  3  0  0  0  0  0  0
  -29.7390   12.8660  -19.3950 C   0  0  0  0  0  3  0  0  0  0  0  0
  -31.0470   12.6650  -19.8390 C   0  0  0  0  0  3  0  0  0  0  0  0
  -31.8130   13.7450  -20.2660 C   0  0  0  0  0  3  0  0  0  0  0  0
  -33.7730   20.7490  -16.5890 C   0  0  2  0  0  3  0  0  0  0  0  0
  -32.5410   20.3580  -15.7330 C   0  0  0  0  0  2  0  0  0  0  0  0
  -32.5350   21.3410  -14.5980 C   0  0  0  0  0  0  0  0  0  0  0  0
  -31.5630   21.4680  -13.6120 C   0  0  0  0  0  3  0  0  0  0  0  0
  -33.6520   22.1780  -14.6270 C   0  0  0  0  0  0  0  0  0  0  0  0
  -31.7440   22.4550  -12.6430 C   0  0  0  0  0  0  0  0  0  0  0  0
  -32.8980   23.3000  -12.6630 C   0  0  0  0  0  0  0  0  0  0  0  0
  -33.8520   23.1610  -13.6590 C   0  0  0  0  0  3  0  0  0  0  0  0
  -34.4860   21.8650  -15.7890 C   0  0  0  0  0  0  0  0  0  0  0  0
  -35.5300   22.3490  -16.1270 O   0  0  0  0  0  0  0  0  0  0  0  0
  -30.8980   22.7150  -11.6210 O   0  0  0  0  0  0  0  0  0  0  0  0
  -29.7330   23.4760  -11.9220 C   0  0  0  0  0  1  0  0  0  0  0  0
  -32.9230   24.2010  -11.6470 O   0  0  0  0  0  0  0  0  0  0  0  0
  -33.9880   24.0770  -10.7120 C   0  0  0  0  0  1  0  0  0  0  0  0
  2  3  1  0  0  0  0
  2  1  1  1  0  0  0
  4  3  1  0  0  0  0
  5  4  1  0  0  0  0
  5  7  1  0  0  0  0
  6  5  1  0  0  0  0
  6  8  1  0  0  0  0
  8  2  1  0  0  0  0
  9 10  1  0  0  0  0
  9  5  1  0  0  0  0
 10 11  1  0  0  0  0
 11 12  2  0  0  0  0
 13 12  1  0  0  0  0
 14 13  2  0  0  0  0
 15 10  2  0  0  0  0
 15 14  1  0  0  0  0
 16  1  1  1  0  0  0
 16 24  1  0  0  0  0
 16 17  1  0  0  0  0
 17 18  1  0  0  0  0
 18 19  1  0  0  0  0
 19 21  2  0  0  0  0
 20 18  2  0  0  0  0
 20 23  1  0  0  0  0
 21 26  1  0  0  0  0
 22 21  1  0  0  0  0
 22 28  1  0  0  0  0
 23 22  2  0  0  0  0
 24 20  1  0  0  0  0
 25 24  2  0  0  0  0
 27 26  1  0  0  0  0
 28 29  1  0  0  0  0
M  END
>  <MODEL>
10

>  <REMARK>
 VINA RESULT:    -7.522      1.467      2.522
 INTER + INTRA:         -10.983
 INTER:                 -10.547
 INTRA:                  -0.436
 UNBOUND:                -0.823
  6 active torsions:
  status: ('A' for Active; 'I' for Inactive)
    1  A    between atoms: O2_2  and  C16_20 
    2  A    between atoms: O3_3  and  C17_21 
    3  A    between atoms: N_4  and  C12_16 
    4  A    between atoms: C1_5  and  C2_6 
    5  A    between atoms: C2_6  and  C3_7 
    6  A    between atoms: C12_16  and  C15_19 

>  <TORSDO>
F 6

$$$$
./Donepezila.pdbqt
 OpenBabel10292511183D

 29 32  0  0  1  0  0  0  0  0999 V2000
  -43.6970   29.2950   -2.9830 C   0  0  0  0  0  2  0  0  0  0  0  0
  -44.0580   30.1980   -1.7940 C   0  0  2  0  0  3  0  0  0  0  0  0
  -44.0370   31.6830   -2.1950 C   0  0  0  0  0  2  0  0  0  0  0  0
  -44.3910   32.5660   -1.0040 C   0  0  0  0  0  2  0  0  0  0  0  0
  -43.3900   32.3470    0.1180 N   0  0  0  0  0  4  0  0  0  0  0  0
  -43.4020   30.8870    0.5450 C   0  0  0  0  0  2  0  0  0  0  0  0
  -42.4320   32.5910   -0.2430 H   0  0  0  0  0  0  0  0  0  0  0  0
  -43.0610   29.9870   -0.6420 C   0  0  0  0  0  2  0  0  0  0  0  0
  -43.7170   33.2440    1.3050 C   0  0  0  0  0  2  0  0  0  0  0  0
  -42.5370   33.2770    2.2270 C   0  0  0  0  0  0  0  0  0  0  0  0
  -41.2730   33.6020    1.7360 C   0  0  0  0  0  3  0  0  0  0  0  0
  -40.1810   33.6300    2.6020 C   0  0  0  0  0  3  0  0  0  0  0  0
  -40.3570   33.3310    3.9510 C   0  0  0  0  0  3  0  0  0  0  0  0
  -41.6250   33.0160    4.4420 C   0  0  0  0  0  3  0  0  0  0  0  0
  -42.7200   32.9920    3.5830 C   0  0  0  0  0  3  0  0  0  0  0  0
  -44.4580   27.9710   -2.9580 C   0  0  2  0  0  3  0  0  0  0  0  0
  -44.5840   27.3470   -1.5440 C   0  0  0  0  0  2  0  0  0  0  0  0
  -44.0180   25.9630   -1.6840 C   0  0  0  0  0  0  0  0  0  0  0  0
  -44.0000   24.9690   -0.7130 C   0  0  0  0  0  3  0  0  0  0  0  0
  -43.4890   25.7420   -2.9570 C   0  0  0  0  0  0  0  0  0  0  0  0
  -43.4270   23.7420   -1.0480 C   0  0  0  0  0  0  0  0  0  0  0  0
  -42.8690   23.5230   -2.3460 C   0  0  0  0  0  0  0  0  0  0  0  0
  -42.9030   24.5260   -3.3030 C   0  0  0  0  0  3  0  0  0  0  0  0
  -43.6800   26.9290   -3.7950 C   0  0  0  0  0  0  0  0  0  0  0  0
  -43.3350   27.1230   -4.9270 O   0  0  0  0  0  0  0  0  0  0  0  0
  -43.3310   22.6720   -0.2280 O   0  0  0  0  0  0  0  0  0  0  0  0
  -44.2190   22.6260    0.8840 C   0  0  0  0  0  1  0  0  0  0  0  0
  -42.3470   22.2790   -2.5060 O   0  0  0  0  0  0  0  0  0  0  0  0
  -40.9730   22.2070   -2.8690 C   0  0  0  0  0  1  0  0  0  0  0  0
  2  1  1  6  0  0  0
  2  8  1  0  0  0  0
  3  2  1  0  0  0  0
  3  4  1  0  0  0  0
  4  5  1  0  0  0  0
  5  6  1  0  0  0  0
  5  9  1  0  0  0  0
  7  5  1  0  0  0  0
  8  6  1  0  0  0  0
  9 10  1  0  0  0  0
 10 15  1  0  0  0  0
 11 10  2  0  0  0  0
 11 12  1  0  0  0  0
 12 13  2  0  0  0  0
 13 14  1  0  0  0  0
 15 14  2  0  0  0  0
 16  1  1  1  0  0  0
 16 17  1  0  0  0  0
 18 17  1  0  0  0  0
 18 19  1  0  0  0  0
 20 18  2  0  0  0  0
 21 19  2  0  0  0  0
 21 26  1  0  0  0  0
 22 21  1  0  0  0  0
 23 20  1  0  0  0  0
 23 22  2  0  0  0  0
 24 16  1  0  0  0  0
 24 20  1  0  0  0  0
 25 24  2  0  0  0  0
 26 27  1  0  0  0  0
 28 22  1  0  0  0  0
 29 28  1  0  0  0  0
M  END
>  <MODEL>
11

>  <REMARK>
 VINA RESULT:    -7.448     16.850     22.379
 INTER + INTRA:         -10.884
 INTER:                 -10.303
 INTRA:                  -0.581
 UNBOUND:                -0.823
  6 active torsions:
  status: ('A' for Active; 'I' for Inactive)
    1  A    between atoms: O2_2  and  C16_20 
    2  A    between atoms: O3_3  and  C17_21 
    3  A    between atoms: N_4  and  C12_16 
    4  A    between atoms: C1_5  and  C2_6 
    5  A    between atoms: C2_6  and  C3_7 
    6  A    between atoms: C12_16  and  C15_19 

>  <TORSDO>
F 6

$$$$
./Donepezila.pdbqt
 OpenBabel10292511183D

 29 32  0  0  1  0  0  0  0  0999 V2000
  -44.0240   31.8310   -1.3400 C   0  0  0  0  0  2  0  0  0  0  0  0
  -43.9280   31.8300    0.1920 C   0  0  2  0  0  3  0  0  0  0  0  0
  -43.9220   33.2620    0.7520 C   0  0  0  0  0  2  0  0  0  0  0  0
  -43.8190   33.2440    2.2740 C   0  0  0  0  0  2  0  0  0  0  0  0
  -42.5380   32.5470    2.6980 N   0  0  0  0  0  4  0  0  0  0  0  0
  -42.5260   31.1210    2.1700 C   0  0  0  0  0  2  0  0  0  0  0  0
  -41.7250   33.0730    2.2850 H   0  0  0  0  0  0  0  0  0  0  0  0
  -42.6400   31.1210    0.6460 C   0  0  0  0  0  2  0  0  0  0  0  0
  -42.4110   32.5460    4.2150 C   0  0  0  0  0  2  0  0  0  0  0  0
  -41.0150   32.1460    4.5840 C   0  0  0  0  0  0  0  0  0  0  0  0
  -39.9250   32.7130    3.9240 C   0  0  0  0  0  3  0  0  0  0  0  0
  -38.6310   32.3340    4.2740 C   0  0  0  0  0  3  0  0  0  0  0  0
  -38.4320   31.3910    5.2800 C   0  0  0  0  0  3  0  0  0  0  0  0
  -39.5230   30.8330    5.9470 C   0  0  0  0  0  3  0  0  0  0  0  0
  -40.8180   31.2110    5.6050 C   0  0  0  0  0  3  0  0  0  0  0  0
  -44.7860   30.6200   -1.8740 C   0  0  2  0  0  3  0  0  0  0  0  0
  -45.4460   29.7560   -0.7680 C   0  0  0  0  0  2  0  0  0  0  0  0
  -44.9160   28.3700   -0.9980 C   0  0  0  0  0  0  0  0  0  0  0  0
  -45.2910   27.2130   -0.3240 C   0  0  0  0  0  3  0  0  0  0  0  0
  -43.9630   28.3370   -2.0170 C   0  0  0  0  0  0  0  0  0  0  0  0
  -44.6780   26.0160   -0.6940 C   0  0  0  0  0  0  0  0  0  0  0  0
  -43.6890   25.9880   -1.7260 C   0  0  0  0  0  0  0  0  0  0  0  0
  -43.3320   27.1510   -2.3900 C   0  0  0  0  0  3  0  0  0  0  0  0
  -43.7900   29.6750   -2.5880 C   0  0  0  0  0  0  0  0  0  0  0  0
  -43.0460   30.0410   -3.4540 O   0  0  0  0  0  0  0  0  0  0  0  0
  -44.9280   24.8060   -0.1470 O   0  0  0  0  0  0  0  0  0  0  0  0
  -44.8890   24.7160    1.2740 C   0  0  0  0  0  1  0  0  0  0  0  0
  -43.1880   24.7460   -1.9570 O   0  0  0  0  0  0  0  0  0  0  0  0
  -42.9160   24.4120   -3.3130 C   0  0  0  0  0  1  0  0  0  0  0  0
  2  1  1  6  0  0  0
  2  8  1  0  0  0  0
  2  3  1  0  0  0  0
  3  4  1  0  0  0  0
  4  5  1  0  0  0  0
  5  9  1  0  0  0  0
  6  5  1  0  0  0  0
  7  5  1  0  0  0  0
  8  6  1  0  0  0  0
  9 10  1  0  0  0  0
 10 15  1  0  0  0  0
 11 12  1  0  0  0  0
 11 10  2  0  0  0  0
 12 13  2  0  0  0  0
 13 14  1  0  0  0  0
 15 14  2  0  0  0  0
 16  1  1  1  0  0  0
 16 17  1  0  0  0  0
 18 17  1  0  0  0  0
 18 19  1  0  0  0  0
 20 18  2  0  0  0  0
 21 19  2  0  0  0  0
 21 26  1  0  0  0  0
 22 21  1  0  0  0  0
 23 20  1  0  0  0  0
 23 22  2  0  0  0  0
 24 20  1  0  0  0  0
 24 16  1  0  0  0  0
 25 24  2  0  0  0  0
 26 27  1  0  0  0  0
 28 22  1  0  0  0  0
 29 28  1  0  0  0  0
M  END
>  <MODEL>
12

>  <REMARK>
 VINA RESULT:    -7.407     18.068     23.545
 INTER + INTRA:         -10.828
 INTER:                  -9.809
 INTRA:                  -1.018
 UNBOUND:                -0.823
  6 active torsions:
  status: ('A' for Active; 'I' for Inactive)
    1  A    between atoms: O2_2  and  C16_20 
    2  A    between atoms: O3_3  and  C17_21 
    3  A    between atoms: N_4  and  C12_16 
    4  A    between atoms: C1_5  and  C2_6 
    5  A    between atoms: C2_6  and  C3_7 
    6  A    between atoms: C12_16  and  C15_19 

>  <TORSDO>
F 6

$$$$
./Donepezila.pdbqt
 OpenBabel10292511183D

 29 32  0  0  1  0  0  0  0  0999 V2000
  -44.0010   32.5610   -0.1420 C   0  0  0  0  0  2  0  0  0  0  0  0
  -43.4730   31.1210   -0.2160 C   0  0  2  0  0  3  0  0  0  0  0  0
  -43.7640   30.4900   -1.5880 C   0  0  0  0  0  2  0  0  0  0  0  0
  -43.2400   29.0590   -1.6440 C   0  0  0  0  0  2  0  0  0  0  0  0
  -43.9090   28.2210   -0.5670 N   0  0  0  0  0  4  0  0  0  0  0  0
  -43.6240   28.8150    0.8030 C   0  0  0  0  0  2  0  0  0  0  0  0
  -44.9480   28.2350   -0.7380 H   0  0  0  0  0  0  0  0  0  0  0  0
  -44.1330   30.2550    0.8710 C   0  0  0  0  0  2  0  0  0  0  0  0
  -43.4130   26.7830   -0.6300 C   0  0  0  0  0  2  0  0  0  0  0  0
  -43.9300   26.1470   -1.8840 C   0  0  0  0  0  0  0  0  0  0  0  0
  -45.3030   26.0840   -2.1240 C   0  0  0  0  0  3  0  0  0  0  0  0
  -45.7740   25.4910   -3.2940 C   0  0  0  0  0  3  0  0  0  0  0  0
  -44.8720   24.9620   -4.2160 C   0  0  0  0  0  3  0  0  0  0  0  0
  -43.4990   25.0370   -3.9790 C   0  0  0  0  0  3  0  0  0  0  0  0
  -43.0230   25.6330   -2.8150 C   0  0  0  0  0  3  0  0  0  0  0  0
  -43.1400   33.4490    0.7540 C   0  0  2  0  0  3  0  0  0  0  0  0
  -41.7110   32.8970    0.9970 C   0  0  0  0  0  2  0  0  0  0  0  0
  -41.5750   32.8320    2.4910 C   0  0  0  0  0  0  0  0  0  0  0  0
  -40.4330   32.4950    3.2090 C   0  0  0  0  0  3  0  0  0  0  0  0
  -42.7640   33.1710    3.1390 C   0  0  0  0  0  0  0  0  0  0  0  0
  -40.5140   32.4970    4.6010 C   0  0  0  0  0  0  0  0  0  0  0  0
  -41.7380   32.8270    5.2640 C   0  0  0  0  0  0  0  0  0  0  0  0
  -42.8650   33.1660    4.5300 C   0  0  0  0  0  3  0  0  0  0  0  0
  -43.7900   33.5270    2.1560 C   0  0  0  0  0  0  0  0  0  0  0  0
  -44.9330   33.8430    2.3320 O   0  0  0  0  0  0  0  0  0  0  0  0
  -39.5030   32.2000    5.4460 O   0  0  0  0  0  0  0  0  0  0  0  0
  -38.6850   31.0830    5.1110 C   0  0  0  0  0  1  0  0  0  0  0  0
  -41.6490   32.7760    6.6180 O   0  0  0  0  0  0  0  0  0  0  0  0
  -42.8370   33.0600    7.3460 C   0  0  0  0  0  1  0  0  0  0  0  0
  2  1  1  6  0  0  0
  2  8  1  0  0  0  0
  3  2  1  0  0  0  0
  4  3  1  0  0  0  0
  4  5  1  0  0  0  0
  5  6  1  0  0  0  0
  6  8  1  0  0  0  0
  7  5  1  0  0  0  0
  9  5  1  0  0  0  0
 10  9  1  0  0  0  0
 11 10  1  0  0  0  0
 12 11  2  0  0  0  0
 13 14  2  0  0  0  0
 13 12  1  0  0  0  0
 14 15  1  0  0  0  0
 15 10  2  0  0  0  0
 16  1  1  6  0  0  0
 16 17  1  0  0  0  0
 16 24  1  0  0  0  0
 17 18  1  0  0  0  0
 18 20  2  0  0  0  0
 18 19  1  0  0  0  0
 19 21  2  0  0  0  0
 20 23  1  0  0  0  0
 21 22  1  0  0  0  0
 21 26  1  0  0  0  0
 22 28  1  0  0  0  0
 23 22  2  0  0  0  0
 24 25  2  0  0  0  0
 24 20  1  0  0  0  0
 27 26  1  0  0  0  0
 28 29  1  0  0  0  0
M  END
>  <MODEL>
13

>  <REMARK>
 VINA RESULT:    -7.395     18.589     22.857
 INTER + INTRA:         -10.812
 INTER:                  -9.719
 INTRA:                  -1.093
 UNBOUND:                -0.823
  6 active torsions:
  status: ('A' for Active; 'I' for Inactive)
    1  A    between atoms: O2_2  and  C16_20 
    2  A    between atoms: O3_3  and  C17_21 
    3  A    between atoms: N_4  and  C12_16 
    4  A    between atoms: C1_5  and  C2_6 
    5  A    between atoms: C2_6  and  C3_7 
    6  A    between atoms: C12_16  and  C15_19 

>  <TORSDO>
F 6

$$$$
./Donepezila.pdbqt
 OpenBabel10292511183D

 29 32  0  0  1  0  0  0  0  0999 V2000
  -35.4260   21.8550  -16.6820 C   0  0  0  0  0  2  0  0  0  0  0  0
  -36.9130   21.5500  -16.9110 C   0  0  2  0  0  3  0  0  0  0  0  0
  -37.7530   22.8390  -16.9150 C   0  0  0  0  0  2  0  0  0  0  0  0
  -39.2270   22.5180  -17.1370 C   0  0  0  0  0  2  0  0  0  0  0  0
  -39.7320   21.6080  -16.0290 N   0  0  0  0  0  4  0  0  0  0  0  0
  -38.9270   20.3180  -16.0140 C   0  0  0  0  0  2  0  0  0  0  0  0
  -39.6020   22.1050  -15.1110 H   0  0  0  0  0  0  0  0  0  0  0  0
  -37.4440   20.6220  -15.8040 C   0  0  0  0  0  2  0  0  0  0  0  0
  -41.2110   21.3030  -16.2260 C   0  0  0  0  0  2  0  0  0  0  0  0
  -41.9910   21.9650  -15.1320 C   0  0  0  0  0  0  0  0  0  0  0  0
  -41.3320   22.4880  -14.0190 C   0  0  0  0  0  3  0  0  0  0  0  0
  -42.0660   23.1020  -13.0060 C   0  0  0  0  0  3  0  0  0  0  0  0
  -43.4530   23.1890  -13.1080 C   0  0  0  0  0  3  0  0  0  0  0  0
  -44.1090   22.6750  -14.2280 C   0  0  0  0  0  3  0  0  0  0  0  0
  -43.3800   22.0650  -15.2450 C   0  0  0  0  0  3  0  0  0  0  0  0
  -34.9320   21.3510  -15.3280 C   0  0  2  0  0  3  0  0  0  0  0  0
  -34.6820   22.4790  -14.2920 C   0  0  0  0  0  2  0  0  0  0  0  0
  -33.2590   22.2850  -13.8510 C   0  0  0  0  0  0  0  0  0  0  0  0
  -32.5940   22.9870  -12.8530 C   0  0  0  0  0  3  0  0  0  0  0  0
  -32.6250   21.2670  -14.5660 C   0  0  0  0  0  0  0  0  0  0  0  0
  -31.2670   22.6490  -12.5920 C   0  0  0  0  0  0  0  0  0  0  0  0
  -30.6130   21.6190  -13.3380 C   0  0  0  0  0  0  0  0  0  0  0  0
  -31.2950   20.9260  -14.3260 C   0  0  0  0  0  3  0  0  0  0  0  0
  -33.5590   20.6630  -15.5190 C   0  0  0  0  0  0  0  0  0  0  0  0
  -33.3710   19.7880  -16.3170 O   0  0  0  0  0  0  0  0  0  0  0  0
  -30.4800   23.2260  -11.6580 O   0  0  0  0  0  0  0  0  0  0  0  0
  -30.4470   24.6500  -11.6270 C   0  0  0  0  0  1  0  0  0  0  0  0
  -29.3220   21.4190  -12.9640 O   0  0  0  0  0  0  0  0  0  0  0  0
  -28.7250   20.1920  -13.3660 C   0  0  0  0  0  1  0  0  0  0  0  0
  2  1  1  1  0  0  0
  2  8  1  0  0  0  0
  3  2  1  0  0  0  0
  4  3  1  0  0  0  0
  4  5  1  0  0  0  0
  5  6  1  0  0  0  0
  5  7  1  0  0  0  0
  6  8  1  0  0  0  0
  9  5  1  0  0  0  0
  9 10  1  0  0  0  0
 10 11  1  0  0  0  0
 11 12  2  0  0  0  0
 13 12  1  0  0  0  0
 14 13  2  0  0  0  0
 15 10  2  0  0  0  0
 15 14  1  0  0  0  0
 16  1  1  6  0  0  0
 16 17  1  0  0  0  0
 17 18  1  0  0  0  0
 18 19  1  0  0  0  0
 19 21  2  0  0  0  0
 20 23  1  0  0  0  0
 20 18  2  0  0  0  0
 21 26  1  0  0  0  0
 22 28  1  0  0  0  0
 22 21  1  0  0  0  0
 23 22  2  0  0  0  0
 24 16  1  0  0  0  0
 24 20  1  0  0  0  0
 25 24  2  0  0  0  0
 26 27  1  0  0  0  0
 29 28  1  0  0  0  0
M  END
>  <MODEL>
14

>  <REMARK>
 VINA RESULT:    -7.358      4.621      7.655
 INTER + INTRA:         -10.761
 INTER:                  -9.849
 INTRA:                  -0.913
 UNBOUND:                -0.823
  6 active torsions:
  status: ('A' for Active; 'I' for Inactive)
    1  A    between atoms: O2_2  and  C16_20 
    2  A    between atoms: O3_3  and  C17_21 
    3  A    between atoms: N_4  and  C12_16 
    4  A    between atoms: C1_5  and  C2_6 
    5  A    between atoms: C2_6  and  C3_7 
    6  A    between atoms: C12_16  and  C15_19 

>  <TORSDO>
F 6

$$$$
./Donepezila.pdbqt
 OpenBabel10292511183D

 29 32  0  0  1  0  0  0  0  0999 V2000
   -4.6660   33.4310    7.6040 C   0  0  0  0  0  2  0  0  0  0  0  0
   -3.4550   32.4940    7.7180 C   0  0  2  0  0  3  0  0  0  0  0  0
   -2.3900   32.8270    6.6590 C   0  0  0  0  0  2  0  0  0  0  0  0
   -1.1980   31.8850    6.7810 C   0  0  0  0  0  2  0  0  0  0  0  0
   -1.6520   30.4480    6.5840 N   0  0  0  0  0  4  0  0  0  0  0  0
   -2.6950   30.0870    7.6300 C   0  0  0  0  0  2  0  0  0  0  0  0
   -2.0830   30.3670    5.6270 H   0  0  0  0  0  0  0  0  0  0  0  0
   -3.8930   31.0310    7.5290 C   0  0  0  0  0  2  0  0  0  0  0  0
   -0.4640   29.4990    6.6770 C   0  0  0  0  0  2  0  0  0  0  0  0
   -0.3500   28.7390    5.3910 C   0  0  0  0  0  0  0  0  0  0  0  0
   -1.3610   27.8590    5.0050 C   0  0  0  0  0  3  0  0  0  0  0  0
   -1.2460   27.1560    3.8060 C   0  0  0  0  0  3  0  0  0  0  0  0
   -0.1220   27.3350    3.0020 C   0  0  0  0  0  3  0  0  0  0  0  0
    0.8820   28.2250    3.3850 C   0  0  0  0  0  3  0  0  0  0  0  0
    0.7700   28.9330    4.5770 C   0  0  0  0  0  3  0  0  0  0  0  0
   -4.7880   34.3690    8.8030 C   0  0  2  0  0  3  0  0  0  0  0  0
   -6.2290   34.4800    9.3670 C   0  0  0  0  0  2  0  0  0  0  0  0
   -6.5340   35.9510    9.3510 C   0  0  0  0  0  0  0  0  0  0  0  0
   -7.6710   36.5710    9.8560 C   0  0  0  0  0  3  0  0  0  0  0  0
   -5.5080   36.6900    8.7590 C   0  0  0  0  0  0  0  0  0  0  0  0
   -7.7600   37.9580    9.7460 C   0  0  0  0  0  0  0  0  0  0  0  0
   -6.7170   38.7120    9.1230 C   0  0  0  0  0  0  0  0  0  0  0  0
   -5.5880   38.0760    8.6310 C   0  0  0  0  0  3  0  0  0  0  0  0
   -4.4140   35.8030    8.3590 C   0  0  0  0  0  0  0  0  0  0  0  0
   -3.3870   36.0680    7.8000 O   0  0  0  0  0  0  0  0  0  0  0  0
   -8.7890   38.7150   10.1860 O   0  0  0  0  0  0  0  0  0  0  0  0
   -9.1940   38.5350   11.5390 C   0  0  0  0  0  1  0  0  0  0  0  0
   -6.9630   40.0480    9.0910 O   0  0  0  0  0  0  0  0  0  0  0  0
   -6.0290   40.8830    9.7650 C   0  0  0  0  0  1  0  0  0  0  0  0
  2  1  1  6  0  0  0
  3  4  1  0  0  0  0
  3  2  1  0  0  0  0
  5  9  1  0  0  0  0
  5  4  1  0  0  0  0
  5  6  1  0  0  0  0
  7  5  1  0  0  0  0
  8  6  1  0  0  0  0
  8  2  1  0  0  0  0
 10  9  1  0  0  0  0
 11 10  1  0  0  0  0
 12 11  2  0  0  0  0
 13 14  2  0  0  0  0
 13 12  1  0  0  0  0
 14 15  1  0  0  0  0
 15 10  2  0  0  0  0
 16  1  1  6  0  0  0
 16 17  1  0  0  0  0
 18 17  1  0  0  0  0
 18 19  1  0  0  0  0
 20 18  2  0  0  0  0
 21 19  2  0  0  0  0
 21 26  1  0  0  0  0
 22 21  1  0  0  0  0
 23 20  1  0  0  0  0
 23 22  2  0  0  0  0
 24 20  1  0  0  0  0
 24 16  1  0  0  0  0
 25 24  2  0  0  0  0
 26 27  1  0  0  0  0
 28 22  1  0  0  0  0
 28 29  1  0  0  0  0
M  END
>  <MODEL>
15

>  <REMARK>
 VINA RESULT:    -7.343     38.795     40.285
 INTER + INTRA:         -10.742
 INTER:                  -9.993
 INTRA:                  -0.749
 UNBOUND:                -0.823
  6 active torsions:
  status: ('A' for Active; 'I' for Inactive)
    1  A    between atoms: O2_2  and  C16_20 
    2  A    between atoms: O3_3  and  C17_21 
    3  A    between atoms: N_4  and  C12_16 
    4  A    between atoms: C1_5  and  C2_6 
    5  A    between atoms: C2_6  and  C3_7 
    6  A    between atoms: C12_16  and  C15_19 

>  <TORSDO>
F 6

$$$$
./Donepezila.pdbqt
 OpenBabel10292511183D

 29 32  0  0  1  0  0  0  0  0999 V2000
  -45.1750   28.7090   -3.3570 C   0  0  0  0  0  2  0  0  0  0  0  0
  -44.7600   28.8960   -1.8910 C   0  0  2  0  0  3  0  0  0  0  0  0
  -45.6410   29.9460   -1.1910 C   0  0  0  0  0  2  0  0  0  0  0  0
  -45.2120   30.1250    0.2610 C   0  0  0  0  0  2  0  0  0  0  0  0
  -43.7640   30.5820    0.3210 N   0  0  0  0  0  4  0  0  0  0  0  0
  -42.8690   29.5520   -0.3510 C   0  0  0  0  0  2  0  0  0  0  0  0
  -43.6860   31.4950   -0.1970 H   0  0  0  0  0  0  0  0  0  0  0  0
  -43.2930   29.3520   -1.8050 C   0  0  0  0  0  2  0  0  0  0  0  0
  -43.3320   30.7900    1.7660 C   0  0  0  0  0  2  0  0  0  0  0  0
  -42.1240   31.6750    1.7880 C   0  0  0  0  0  0  0  0  0  0  0  0
  -40.8840   31.1590    2.1690 C   0  0  0  0  0  3  0  0  0  0  0  0
  -39.7650   31.9910    2.1860 C   0  0  0  0  0  3  0  0  0  0  0  0
  -39.8910   33.3310    1.8250 C   0  0  0  0  0  3  0  0  0  0  0  0
  -41.1290   33.8410    1.4330 C   0  0  0  0  0  3  0  0  0  0  0  0
  -42.2480   33.0140    1.4090 C   0  0  0  0  0  3  0  0  0  0  0  0
  -45.3860   27.2390   -3.7170 C   0  0  2  0  0  3  0  0  0  0  0  0
  -45.9430   26.3820   -2.5510 C   0  0  0  0  0  2  0  0  0  0  0  0
  -44.9630   25.2530   -2.4030 C   0  0  0  0  0  0  0  0  0  0  0  0
  -45.0750   24.1580   -1.5540 C   0  0  0  0  0  3  0  0  0  0  0  0
  -43.8650   25.4010   -3.2530 C   0  0  0  0  0  0  0  0  0  0  0  0
  -44.0510   23.2130   -1.5710 C   0  0  0  0  0  0  0  0  0  0  0  0
  -42.9180   23.3740   -2.4290 C   0  0  0  0  0  0  0  0  0  0  0  0
  -42.8270   24.4700   -3.2730 C   0  0  0  0  0  3  0  0  0  0  0  0
  -44.0180   26.6080   -4.0690 C   0  0  0  0  0  0  0  0  0  0  0  0
  -43.2720   27.0730   -4.8840 O   0  0  0  0  0  0  0  0  0  0  0  0
  -44.0050   22.0930   -0.8160 O   0  0  0  0  0  0  0  0  0  0  0  0
  -44.1320   22.2550    0.5930 C   0  0  0  0  0  1  0  0  0  0  0  0
  -42.0110   22.3690   -2.3180 O   0  0  0  0  0  0  0  0  0  0  0  0
  -40.7710   22.5540   -2.9910 C   0  0  0  0  0  1  0  0  0  0  0  0
  2  1  1  6  0  0  0
  2  8  1  0  0  0  0
  2  3  1  0  0  0  0
  3  4  1  0  0  0  0
  4  5  1  0  0  0  0
  5  9  1  0  0  0  0
  6  5  1  0  0  0  0
  7  5  1  0  0  0  0
  8  6  1  0  0  0  0
  9 10  1  0  0  0  0
 10 11  1  0  0  0  0
 11 12  2  0  0  0  0
 13 12  1  0  0  0  0
 14 13  2  0  0  0  0
 15 14  1  0  0  0  0
 15 10  2  0  0  0  0
 16  1  1  1  0  0  0
 16 17  1  0  0  0  0
 17 18  1  0  0  0  0
 18 19  1  0  0  0  0
 20 18  2  0  0  0  0
 21 19  2  0  0  0  0
 21 26  1  0  0  0  0
 22 28  1  0  0  0  0
 22 21  1  0  0  0  0
 23 20  1  0  0  0  0
 23 22  2  0  0  0  0
 24 16  1  0  0  0  0
 24 20  1  0  0  0  0
 25 24  2  0  0  0  0
 26 27  1  0  0  0  0
 29 28  1  0  0  0  0
M  END
>  <MODEL>
16

>  <REMARK>
 VINA RESULT:    -7.299     16.697     21.713
 INTER + INTRA:         -10.683
 INTER:                  -9.544
 INTRA:                  -1.139
 UNBOUND:                -0.823
  6 active torsions:
  status: ('A' for Active; 'I' for Inactive)
    1  A    between atoms: O2_2  and  C16_20 
    2  A    between atoms: O3_3  and  C17_21 
    3  A    between atoms: N_4  and  C12_16 
    4  A    between atoms: C1_5  and  C2_6 
    5  A    between atoms: C2_6  and  C3_7 
    6  A    between atoms: C12_16  and  C15_19 

>  <TORSDO>
F 6

$$$$
./Donepezila.pdbqt
 OpenBabel10292511183D

 29 32  0  0  1  0  0  0  0  0999 V2000
  -44.4400   29.2220   -1.2850 C   0  0  0  0  0  2  0  0  0  0  0  0
  -43.7880   30.2970   -0.4040 C   0  0  2  0  0  3  0  0  0  0  0  0
  -44.1920   30.1300    1.0700 C   0  0  0  0  0  2  0  0  0  0  0  0
  -43.5420   31.2090    1.9310 C   0  0  0  0  0  2  0  0  0  0  0  0
  -43.9800   32.5840    1.4550 N   0  0  0  0  0  4  0  0  0  0  0  0
  -43.5770   32.7810    0.0020 C   0  0  0  0  0  2  0  0  0  0  0  0
  -45.0280   32.6400    1.5320 H   0  0  0  0  0  0  0  0  0  0  0  0
  -44.2120   31.7000   -0.8730 C   0  0  0  0  0  2  0  0  0  0  0  0
  -43.3580   33.6690    2.3240 C   0  0  0  0  0  2  0  0  0  0  0  0
  -41.9150   33.3360    2.5550 C   0  0  0  0  0  0  0  0  0  0  0  0
  -40.9560   33.6740    1.5990 C   0  0  0  0  0  3  0  0  0  0  0  0
  -39.6170   33.3600    1.8230 C   0  0  0  0  0  3  0  0  0  0  0  0
  -39.2430   32.7090    2.9970 C   0  0  0  0  0  3  0  0  0  0  0  0
  -40.2020   32.3820    3.9560 C   0  0  0  0  0  3  0  0  0  0  0  0
  -41.5410   32.6980    3.7410 C   0  0  0  0  0  3  0  0  0  0  0  0
  -43.4080   28.3640   -2.0140 C   0  0  2  0  0  3  0  0  0  0  0  0
  -43.7340   28.1280   -3.5120 C   0  0  0  0  0  2  0  0  0  0  0  0
  -43.7340   26.6350   -3.6730 C   0  0  0  0  0  0  0  0  0  0  0  0
  -43.8760   25.9260   -4.8600 C   0  0  0  0  0  3  0  0  0  0  0  0
  -43.5570   25.9780   -2.4540 C   0  0  0  0  0  0  0  0  0  0  0  0
  -43.8440   24.5340   -4.7950 C   0  0  0  0  0  0  0  0  0  0  0  0
  -43.6810   23.8620   -3.5430 C   0  0  0  0  0  0  0  0  0  0  0  0
  -43.5350   24.5870   -2.3710 C   0  0  0  0  0  3  0  0  0  0  0  0
  -43.3860   26.9550   -1.3760 C   0  0  0  0  0  0  0  0  0  0  0  0
  -43.2390   26.7700   -0.2000 O   0  0  0  0  0  0  0  0  0  0  0  0
  -43.9630   23.6960   -5.8490 O   0  0  0  0  0  0  0  0  0  0  0  0
  -43.5530   24.1920   -7.1200 C   0  0  0  0  0  1  0  0  0  0  0  0
  -43.6780   22.5080   -3.6550 O   0  0  0  0  0  0  0  0  0  0  0  0
  -44.7250   21.8120   -2.9890 C   0  0  0  0  0  1  0  0  0  0  0  0
  2  1  1  6  0  0  0
  2  3  1  0  0  0  0
  3  4  1  0  0  0  0
  5  7  1  0  0  0  0
  5  4  1  0  0  0  0
  5  9  1  0  0  0  0
  6  5  1  0  0  0  0
  8  2  1  0  0  0  0
  8  6  1  0  0  0  0
  9 10  1  0  0  0  0
 10 15  1  0  0  0  0
 11 12  1  0  0  0  0
 11 10  2  0  0  0  0
 12 13  2  0  0  0  0
 13 14  1  0  0  0  0
 15 14  2  0  0  0  0
 16 24  1  0  0  0  0
 16  1  1  1  0  0  0
 17 16  1  0  0  0  0
 18 17  1  0  0  0  0
 18 20  1  0  0  0  0
 19 21  1  0  0  0  0
 19 18  2  0  0  0  0
 20 23  2  0  0  0  0
 20 24  1  0  0  0  0
 21 22  2  0  0  0  0
 22 23  1  0  0  0  0
 24 25  2  0  0  0  0
 26 21  1  0  0  0  0
 27 26  1  0  0  0  0
 28 22  1  0  0  0  0
 28 29  1  0  0  0  0
M  END
>  <MODEL>
17

>  <REMARK>
 VINA RESULT:    -7.244     16.085     22.441
 INTER + INTRA:         -10.607
 INTER:                 -10.419
 INTRA:                  -0.188
 UNBOUND:                -0.823
  6 active torsions:
  status: ('A' for Active; 'I' for Inactive)
    1  A    between atoms: O2_2  and  C16_20 
    2  A    between atoms: O3_3  and  C17_21 
    3  A    between atoms: N_4  and  C12_16 
    4  A    between atoms: C1_5  and  C2_6 
    5  A    between atoms: C2_6  and  C3_7 
    6  A    between atoms: C12_16  and  C15_19 

>  <TORSDO>
F 6

$$$$
./Donepezila.pdbqt
 OpenBabel10292511183D

 29 32  0  0  1  0  0  0  0  0999 V2000
  -34.0970   23.3190  -19.2830 C   0  0  0  0  0  2  0  0  0  0  0  0
  -34.1490   22.7900  -17.8430 C   0  0  2  0  0  3  0  0  0  0  0  0
  -34.8160   23.8050  -16.8990 C   0  0  0  0  0  2  0  0  0  0  0  0
  -34.8550   23.2680  -15.4720 C   0  0  0  0  0  2  0  0  0  0  0  0
  -33.4420   22.9990  -14.9830 N   0  0  0  0  0  4  0  0  0  0  0  0
  -32.7650   21.9840  -15.8900 C   0  0  0  0  0  2  0  0  0  0  0  0
  -32.9040   23.9030  -15.0160 H   0  0  0  0  0  0  0  0  0  0  0  0
  -32.7280   22.5020  -17.3270 C   0  0  0  0  0  2  0  0  0  0  0  0
  -33.4660   22.4870  -13.5480 C   0  0  0  0  0  2  0  0  0  0  0  0
  -32.5650   23.3440  -12.7130 C   0  0  0  0  0  0  0  0  0  0  0  0
  -33.0410   24.5350  -12.1650 C   0  0  0  0  0  3  0  0  0  0  0  0
  -32.1940   25.3260  -11.3890 C   0  0  0  0  0  3  0  0  0  0  0  0
  -30.8780   24.9240  -11.1680 C   0  0  0  0  0  3  0  0  0  0  0  0
  -30.4080   23.7270  -11.7080 C   0  0  0  0  0  3  0  0  0  0  0  0
  -31.2510   22.9300  -12.4790 C   0  0  0  0  0  3  0  0  0  0  0  0
  -32.7470   23.9490  -19.6210 C   0  0  2  0  0  3  0  0  0  0  0  0
  -32.7250   25.4940  -19.4860 C   0  0  0  0  0  2  0  0  0  0  0  0
  -32.2550   25.9880  -20.8240 C   0  0  0  0  0  0  0  0  0  0  0  0
  -31.9740   27.3040  -21.1740 C   0  0  0  0  0  3  0  0  0  0  0  0
  -32.1040   24.9470  -21.7420 C   0  0  0  0  0  0  0  0  0  0  0  0
  -31.5430   27.5540  -22.4760 C   0  0  0  0  0  0  0  0  0  0  0  0
  -31.4060   26.4880  -23.4200 C   0  0  0  0  0  0  0  0  0  0  0  0
  -31.6860   25.1820  -23.0510 C   0  0  0  0  0  3  0  0  0  0  0  0
  -32.4190   23.6650  -21.1060 C   0  0  0  0  0  0  0  0  0  0  0  0
  -32.4300   22.5640  -21.5810 O   0  0  0  0  0  0  0  0  0  0  0  0
  -31.2240   28.7680  -22.9770 O   0  0  0  0  0  0  0  0  0  0  0  0
  -30.4470   29.6270  -22.1490 C   0  0  0  0  0  1  0  0  0  0  0  0
  -30.9830   26.9030  -24.6430 O   0  0  0  0  0  0  0  0  0  0  0  0
  -29.7720   26.3330  -25.1250 C   0  0  0  0  0  1  0  0  0  0  0  0
  2  1  1  6  0  0  0
  2  8  1  0  0  0  0
  2  3  1  0  0  0  0
  3  4  1  0  0  0  0
  4  5  1  0  0  0  0
  5  9  1  0  0  0  0
  6  5  1  0  0  0  0
  7  5  1  0  0  0  0
  8  6  1  0  0  0  0
  9 10  1  0  0  0  0
 10 15  2  0  0  0  0
 10 11  1  0  0  0  0
 11 12  2  0  0  0  0
 12 13  1  0  0  0  0
 14 13  2  0  0  0  0
 15 14  1  0  0  0  0
 16 17  1  0  0  0  0
 16  1  1  6  0  0  0
 18 17  1  0  0  0  0
 19 18  1  0  0  0  0
 20 24  1  0  0  0  0
 20 18  2  0  0  0  0
 21 19  2  0  0  0  0
 22 23  2  0  0  0  0
 22 21  1  0  0  0  0
 23 20  1  0  0  0  0
 24 16  1  0  0  0  0
 25 24  2  0  0  0  0
 26 21  1  0  0  0  0
 26 27  1  0  0  0  0
 28 22  1  0  0  0  0
 29 28  1  0  0  0  0
M  END
>  <MODEL>
18

>  <REMARK>
 VINA RESULT:    -7.211      5.905      9.651
 INTER + INTRA:         -10.563
 INTER:                  -9.688
 INTRA:                  -0.875
 UNBOUND:                -0.823
  6 active torsions:
  status: ('A' for Active; 'I' for Inactive)
    1  A    between atoms: O2_2  and  C16_20 
    2  A    between atoms: O3_3  and  C17_21 
    3  A    between atoms: N_4  and  C12_16 
    4  A    between atoms: C1_5  and  C2_6 
    5  A    between atoms: C2_6  and  C3_7 
    6  A    between atoms: C12_16  and  C15_19 

>  <TORSDO>
F 6

$$$$
./Donepezila.pdbqt
 OpenBabel10292511183D

 29 32  0  0  1  0  0  0  0  0999 V2000
  -38.6110   20.3010  -15.5700 C   0  0  0  0  0  2  0  0  0  0  0  0
  -37.6490   21.4920  -15.4640 C   0  0  2  0  0  3  0  0  0  0  0  0
  -36.1980   21.0640  -15.7400 C   0  0  0  0  0  2  0  0  0  0  0  0
  -35.2550   22.2570  -15.6250 C   0  0  0  0  0  2  0  0  0  0  0  0
  -35.3340   22.8460  -14.2260 N   0  0  0  0  0  4  0  0  0  0  0  0
  -36.7580   23.2930  -13.9330 C   0  0  0  0  0  2  0  0  0  0  0  0
  -35.0610   22.0980  -13.5380 H   0  0  0  0  0  0  0  0  0  0  0  0
  -37.7190   22.1100  -14.0570 C   0  0  0  0  0  2  0  0  0  0  0  0
  -34.3760   24.0220  -14.0910 C   0  0  0  0  0  2  0  0  0  0  0  0
  -33.4330   23.7490  -12.9590 C   0  0  0  0  0  0  0  0  0  0  0  0
  -32.4720   22.7440  -13.0750 C   0  0  0  0  0  3  0  0  0  0  0  0
  -31.5980   22.4980  -12.0170 C   0  0  0  0  0  3  0  0  0  0  0  0
  -31.6900   23.2540  -10.8500 C   0  0  0  0  0  3  0  0  0  0  0  0
  -32.6440   24.2670  -10.7420 C   0  0  0  0  0  3  0  0  0  0  0  0
  -33.5160   24.5210  -11.7970 C   0  0  0  0  0  3  0  0  0  0  0  0
  -40.0590   20.7400  -15.7810 C   0  0  2  0  0  3  0  0  0  0  0  0
  -41.0450   20.1780  -14.7230 C   0  0  0  0  0  2  0  0  0  0  0  0
  -42.1060   19.4790  -15.5230 C   0  0  0  0  0  0  0  0  0  0  0  0
  -43.2700   18.8980  -15.0330 C   0  0  0  0  0  3  0  0  0  0  0  0
  -41.8120   19.4710  -16.8870 C   0  0  0  0  0  0  0  0  0  0  0  0
  -44.1340   18.2980  -15.9480 C   0  0  0  0  0  0  0  0  0  0  0  0
  -43.8230   18.2750  -17.3440 C   0  0  0  0  0  0  0  0  0  0  0  0
  -42.6600   18.8650  -17.8130 C   0  0  0  0  0  3  0  0  0  0  0  0
  -40.5590   20.1870  -17.1370 C   0  0  0  0  0  0  0  0  0  0  0  0
  -39.9770   20.3630  -18.1700 O   0  0  0  0  0  0  0  0  0  0  0  0
  -45.3040   17.6950  -15.6420 O   0  0  0  0  0  0  0  0  0  0  0  0
  -45.5080   17.3260  -14.2820 C   0  0  0  0  0  1  0  0  0  0  0  0
  -44.7640   17.6470  -18.0950 O   0  0  0  0  0  0  0  0  0  0  0  0
  -44.3640   16.4450  -18.7430 C   0  0  0  0  0  1  0  0  0  0  0  0
  2  1  1  1  0  0  0
  2  8  1  0  0  0  0
  3  4  1  0  0  0  0
  3  2  1  0  0  0  0
  4  5  1  0  0  0  0
  5  9  1  0  0  0  0
  5  6  1  0  0  0  0
  5  7  1  0  0  0  0
  8  6  1  0  0  0  0
  9 10  1  0  0  0  0
 10 15  1  0  0  0  0
 11 10  2  0  0  0  0
 11 12  1  0  0  0  0
 12 13  2  0  0  0  0
 13 14  1  0  0  0  0
 15 14  2  0  0  0  0
 16  1  1  1  0  0  0
 16 17  1  0  0  0  0
 18 19  1  0  0  0  0
 18 17  1  0  0  0  0
 20 18  2  0  0  0  0
 21 26  1  0  0  0  0
 21 19  2  0  0  0  0
 22 21  1  0  0  0  0
 23 22  2  0  0  0  0
 23 20  1  0  0  0  0
 24 20  1  0  0  0  0
 24 16  1  0  0  0  0
 25 24  2  0  0  0  0
 26 27  1  0  0  0  0
 28 22  1  0  0  0  0
 29 28  1  0  0  0  0
M  END
>  <MODEL>
19

>  <REMARK>
 VINA RESULT:    -7.128      6.662     10.813
 INTER + INTRA:         -10.451
 INTER:                  -9.733
 INTRA:                  -0.718
 UNBOUND:                -0.823
  6 active torsions:
  status: ('A' for Active; 'I' for Inactive)
    1  A    between atoms: O2_2  and  C16_20 
    2  A    between atoms: O3_3  and  C17_21 
    3  A    between atoms: N_4  and  C12_16 
    4  A    between atoms: C1_5  and  C2_6 
    5  A    between atoms: C2_6  and  C3_7 
    6  A    between atoms: C12_16  and  C15_19 

>  <TORSDO>
F 6

$$$$
./Donepezila.pdbqt
 OpenBabel10292511183D

 29 32  0  0  1  0  0  0  0  0999 V2000
  -36.9080   21.8300  -14.7350 C   0  0  0  0  0  2  0  0  0  0  0  0
  -38.0080   22.2110  -15.7360 C   0  0  2  0  0  3  0  0  0  0  0  0
  -37.4580   23.1160  -16.8520 C   0  0  0  0  0  2  0  0  0  0  0  0
  -38.5630   23.4900  -17.8340 C   0  0  0  0  0  2  0  0  0  0  0  0
  -39.6730   24.2300  -17.1060 N   0  0  0  0  0  4  0  0  0  0  0  0
  -40.2460   23.3500  -16.0060 C   0  0  0  0  0  2  0  0  0  0  0  0
  -39.2610   25.0970  -16.6730 H   0  0  0  0  0  0  0  0  0  0  0  0
  -39.1480   22.9560  -15.0190 C   0  0  0  0  0  2  0  0  0  0  0  0
  -40.7700   24.6330  -18.0820 C   0  0  0  0  0  2  0  0  0  0  0  0
  -40.9500   26.1190  -18.0210 C   0  0  0  0  0  0  0  0  0  0  0  0
  -41.6780   26.6950  -16.9790 C   0  0  0  0  0  3  0  0  0  0  0  0
  -41.8400   28.0790  -16.9310 C   0  0  0  0  0  3  0  0  0  0  0  0
  -41.2760   28.8780  -17.9230 C   0  0  0  0  0  3  0  0  0  0  0  0
  -40.5390   28.3010  -18.9580 C   0  0  0  0  0  3  0  0  0  0  0  0
  -40.3700   26.9200  -19.0080 C   0  0  0  0  0  3  0  0  0  0  0  0
  -35.5710   22.4940  -15.0610 C   0  0  2  0  0  3  0  0  0  0  0  0
  -34.3940   21.4950  -15.2020 C   0  0  0  0  0  2  0  0  0  0  0  0
  -33.3560   21.9870  -14.2350 C   0  0  0  0  0  0  0  0  0  0  0  0
  -32.0710   21.4830  -14.0640 C   0  0  0  0  0  3  0  0  0  0  0  0
  -33.8160   23.0690  -13.4820 C   0  0  0  0  0  0  0  0  0  0  0  0
  -31.2560   22.0880  -13.1080 C   0  0  0  0  0  0  0  0  0  0  0  0
  -31.7350   23.1850  -12.3250 C   0  0  0  0  0  0  0  0  0  0  0  0
  -33.0170   23.6770  -12.5140 C   0  0  0  0  0  3  0  0  0  0  0  0
  -35.1750   23.4260  -13.8920 C   0  0  0  0  0  0  0  0  0  0  0  0
  -35.9010   24.2760  -13.4570 O   0  0  0  0  0  0  0  0  0  0  0  0
  -29.9860   21.7270  -12.8190 O   0  0  0  0  0  0  0  0  0  0  0  0
  -29.3510   20.8190  -13.7130 C   0  0  0  0  0  1  0  0  0  0  0  0
  -30.8190   23.6530  -11.4380 O   0  0  0  0  0  0  0  0  0  0  0  0
  -30.6440   25.0640  -11.3880 C   0  0  0  0  0  1  0  0  0  0  0  0
  2  8  1  0  0  0  0
  2  1  1  1  0  0  0
  3  2  1  0  0  0  0
  4  5  1  0  0  0  0
  4  3  1  0  0  0  0
  5  7  1  0  0  0  0
  5  6  1  0  0  0  0
  6  8  1  0  0  0  0
  9 10  1  0  0  0  0
  9  5  1  0  0  0  0
 10 11  1  0  0  0  0
 11 12  2  0  0  0  0
 13 12  1  0  0  0  0
 14 13  2  0  0  0  0
 15 14  1  0  0  0  0
 15 10  2  0  0  0  0
 16  1  1  1  0  0  0
 16 24  1  0  0  0  0
 17 16  1  0  0  0  0
 17 18  1  0  0  0  0
 18 19  2  0  0  0  0
 18 20  1  0  0  0  0
 19 21  1  0  0  0  0
 20 23  2  0  0  0  0
 21 26  1  0  0  0  0
 21 22  2  0  0  0  0
 22 28  1  0  0  0  0
 23 22  1  0  0  0  0
 24 20  1  0  0  0  0
 24 25  2  0  0  0  0
 27 26  1  0  0  0  0
 28 29  1  0  0  0  0
M  END
>  <MODEL>
20

>  <REMARK>
 VINA RESULT:    -7.022      5.234      9.006
 INTER + INTRA:         -10.307
 INTER:                  -9.404
 INTRA:                  -0.904
 UNBOUND:                -0.823
  6 active torsions:
  status: ('A' for Active; 'I' for Inactive)
    1  A    between atoms: O2_2  and  C16_20 
    2  A    between atoms: O3_3  and  C17_21 
    3  A    between atoms: N_4  and  C12_16 
    4  A    between atoms: C1_5  and  C2_6 
    5  A    between atoms: C2_6  and  C3_7 
    6  A    between atoms: C12_16  and  C15_19 

>  <TORSDO>
F 6

$$$$
