./Esparteina.pdbqt
 OpenBabel10282519553D

 18 21  0  0  1  0  0  0  0  0999 V2000
  -25.3190   23.3100   -9.9720 N   0  0  1  0  0  0  0  0  0  0  0  0
  -27.3590   23.0530   -8.2790 N   0  0  1  0  0  4  0  0  0  0  0  0
  -25.5150   21.3710   -8.4210 C   0  0  1  0  0  3  0  0  0  0  0  0
  -25.0400   23.6310   -7.5170 C   0  0  1  0  0  3  0  0  0  0  0  0
  -25.0640   21.8430   -9.8350 C   0  0  1  0  0  3  0  0  0  0  0  0
  -26.5460   23.9090   -7.3040 C   0  0  2  0  0  3  0  0  0  0  0  0
  -24.7180   22.1410   -7.3610 C   0  0  0  0  0  2  0  0  0  0  0  0
  -24.5870   24.0800   -8.9260 C   0  0  0  0  0  2  0  0  0  0  0  0
  -27.0170   21.5850   -8.1440 C   0  0  0  0  0  2  0  0  0  0  0  0
  -25.8230   21.0630  -10.9240 C   0  0  0  0  0  2  0  0  0  0  0  0
  -26.9880   23.6790   -5.8550 C   0  0  0  0  0  2  0  0  0  0  0  0
  -24.9570   23.8200  -11.3210 C   0  0  0  0  0  2  0  0  0  0  0  0
  -28.8370   23.3010   -8.1120 C   0  0  0  0  0  2  0  0  0  0  0  0
  -25.4390   21.5680  -12.3190 C   0  0  0  0  0  2  0  0  0  0  0  0
  -28.4870   23.9520   -5.7030 C   0  0  0  0  0  2  0  0  0  0  0  0
  -25.7360   23.0650  -12.4070 C   0  0  0  0  0  2  0  0  0  0  0  0
  -29.2980   23.0870   -6.6690 C   0  0  0  0  0  2  0  0  0  0  0  0
  -27.0250   23.3480   -9.2810 H   0  0  0  0  0  0  0  0  0  0  0  0
  1 12  1  6  0  0  0
  1  5  1  0  0  0  0
  1  8  1  0  0  0  0
  2 18  1  6  0  0  0
  2  9  1  0  0  0  0
  2 13  1  0  0  0  0
  2  6  1  0  0  0  0
  3  9  1  1  0  0  0
  3  7  1  0  0  0  0
  4  8  1  6  0  0  0
  4  7  1  0  0  0  0
  4  6  1  0  0  0  0
  5 10  1  6  0  0  0
  5  3  1  0  0  0  0
  6 11  1  1  0  0  0
 11 15  1  0  0  0  0
 13 17  1  0  0  0  0
 14 10  1  0  0  0  0
 16 14  1  0  0  0  0
 16 12  1  0  0  0  0
 17 15  1  0  0  0  0
M  END
>  <MODEL>
1

>  <REMARK>
 VINA RESULT:    -7.988      0.000      0.000
 INTER + INTRA:          -7.988
 INTER:                  -7.988
 INTRA:                   0.000
 UNBOUND:                 0.000
  0 active torsions:
  status: ('A' for Active; 'I' for Inactive)

>  <TORSDO>
F 0

$$$$
./Esparteina.pdbqt
 OpenBabel10282519553D

 18 21  0  0  1  0  0  0  0  0999 V2000
  -24.4080   22.3530   -6.2920 N   0  0  1  0  0  0  0  0  0  0  0  0
  -26.8340   23.4120   -6.5780 N   0  0  1  0  0  4  0  0  0  0  0  0
  -24.8100   24.3840   -7.6760 C   0  0  1  0  0  3  0  0  0  0  0  0
  -25.6720   22.1850   -8.4310 C   0  0  1  0  0  3  0  0  0  0  0  0
  -23.8220   23.6640   -6.7110 C   0  0  1  0  0  3  0  0  0  0  0  0
  -27.0320   22.4320   -7.7370 C   0  0  2  0  0  3  0  0  0  0  0  0
  -25.0390   23.4970   -8.9060 C   0  0  0  0  0  2  0  0  0  0  0  0
  -24.6790   21.4860   -7.4730 C   0  0  0  0  0  2  0  0  0  0  0  0
  -26.1800   24.6960   -7.0440 C   0  0  0  0  0  2  0  0  0  0  0  0
  -23.5440   24.5450   -5.4780 C   0  0  0  0  0  2  0  0  0  0  0  0
  -28.1080   22.9250   -8.7100 C   0  0  0  0  0  2  0  0  0  0  0  0
  -23.5370   21.6320   -5.3250 C   0  0  0  0  0  2  0  0  0  0  0  0
  -28.1360   23.6740   -5.8650 C   0  0  0  0  0  2  0  0  0  0  0  0
  -22.6300   23.8170   -4.4880 C   0  0  0  0  0  2  0  0  0  0  0  0
  -29.4260   23.1690   -7.9700 C   0  0  0  0  0  2  0  0  0  0  0  0
  -23.2840   22.4960   -4.0820 C   0  0  0  0  0  2  0  0  0  0  0  0
  -29.2300   24.1580   -6.8200 C   0  0  0  0  0  2  0  0  0  0  0  0
  -26.1110   22.9340   -5.9070 H   0  0  0  0  0  0  0  0  0  0  0  0
  1  8  1  6  0  0  0
  1 12  1  0  0  0  0
  2 18  1  1  0  0  0
  2 13  1  0  0  0  0
  3  7  1  6  0  0  0
  3  9  1  0  0  0  0
  3  5  1  0  0  0  0
  4  7  1  1  0  0  0
  4  6  1  0  0  0  0
  4  8  1  0  0  0  0
  5  1  1  0  0  0  0
  5 10  1  1  0  0  0
  6 11  1  6  0  0  0
  6  2  1  0  0  0  0
  9  2  1  0  0  0  0
 10 14  1  0  0  0  0
 11 15  1  0  0  0  0
 12 16  1  0  0  0  0
 14 16  1  0  0  0  0
 15 17  1  0  0  0  0
 17 13  1  0  0  0  0
M  END
>  <MODEL>
2

>  <REMARK>
 VINA RESULT:    -7.461      2.009      4.453
 INTER + INTRA:          -7.461
 INTER:                  -7.461
 INTRA:                   0.000
 UNBOUND:                 0.000
  0 active torsions:
  status: ('A' for Active; 'I' for Inactive)

>  <TORSDO>
F 0

$$$$
./Esparteina.pdbqt
 OpenBabel10282519553D

 18 21  0  0  1  0  0  0  0  0999 V2000
  -43.7210   31.3420    0.9440 N   0  0  1  0  0  0  0  0  0  0  0  0
  -41.3440   32.1430    1.8370 N   0  0  1  0  0  4  0  0  0  0  0  0
  -43.2650   33.7150    1.5470 C   0  0  1  0  0  3  0  0  0  0  0  0
  -43.3580   31.9860    3.3220 C   0  0  1  0  0  3  0  0  0  0  0  0
  -44.0250   32.7600    0.5790 C   0  0  1  0  0  3  0  0  0  0  0  0
  -41.8320   31.7520    3.2330 C   0  0  2  0  0  3  0  0  0  0  0  0
  -43.7230   33.4350    2.9830 C   0  0  0  0  0  2  0  0  0  0  0  0
  -44.1200   31.0540    2.3510 C   0  0  0  0  0  2  0  0  0  0  0  0
  -41.7320   33.5640    1.4920 C   0  0  0  0  0  2  0  0  0  0  0  0
  -43.6120   33.0390   -0.8780 C   0  0  0  0  0  2  0  0  0  0  0  0
  -41.0580   32.4970    4.3260 C   0  0  0  0  0  2  0  0  0  0  0  0
  -44.3760   30.3730    0.0250 C   0  0  0  0  0  2  0  0  0  0  0  0
  -39.8590   31.9200    1.7030 C   0  0  0  0  0  2  0  0  0  0  0  0
  -44.2990   32.0580   -1.8330 C   0  0  0  0  0  2  0  0  0  0  0  0
  -39.5550   32.2450    4.1830 C   0  0  0  0  0  2  0  0  0  0  0  0
  -43.9410   30.6290   -1.4240 C   0  0  0  0  0  2  0  0  0  0  0  0
  -39.0660   32.6480    2.7910 C   0  0  0  0  0  2  0  0  0  0  0  0
  -41.8980   31.5030    1.1400 H   0  0  0  0  0  0  0  0  0  0  0  0
  1 12  1  6  0  0  0
  1  8  1  0  0  0  0
  2 18  1  6  0  0  0
  2  6  1  0  0  0  0
  3  9  1  1  0  0  0
  3  7  1  0  0  0  0
  4  8  1  6  0  0  0
  5 10  1  6  0  0  0
  5  1  1  0  0  0  0
  5  3  1  0  0  0  0
  6  4  1  0  0  0  0
  6 11  1  1  0  0  0
  7  4  1  0  0  0  0
  9  2  1  0  0  0  0
 13  2  1  0  0  0  0
 13 17  1  0  0  0  0
 14 16  1  0  0  0  0
 14 10  1  0  0  0  0
 15 11  1  0  0  0  0
 16 12  1  0  0  0  0
 17 15  1  0  0  0  0
M  END
>  <MODEL>
3

>  <REMARK>
 VINA RESULT:    -6.757     19.729     21.724
 INTER + INTRA:          -6.757
 INTER:                  -6.757
 INTRA:                   0.000
 UNBOUND:                 0.000
  0 active torsions:
  status: ('A' for Active; 'I' for Inactive)

>  <TORSDO>
F 0

$$$$
./Esparteina.pdbqt
 OpenBabel10282519553D

 18 21  0  0  1  0  0  0  0  0999 V2000
  -20.2770    1.8850   12.6190 N   0  0  1  0  0  0  0  0  0  0  0  0
  -20.8710   -0.7070   12.7710 N   0  0  1  0  0  4  0  0  0  0  0  0
  -20.6060    0.4810   10.5880 C   0  0  1  0  0  3  0  0  0  0  0  0
  -18.6220    0.1190   12.0300 C   0  0  1  0  0  3  0  0  0  0  0  0
  -20.8070    1.8900   11.2210 C   0  0  1  0  0  3  0  0  0  0  0  0
  -19.3640   -0.9600   12.8530 C   0  0  2  0  0  3  0  0  0  0  0  0
  -19.1090    0.1490   10.5780 C   0  0  0  0  0  2  0  0  0  0  0  0
  -18.8310    1.5240   12.6410 C   0  0  0  0  0  2  0  0  0  0  0  0
  -21.3450   -0.6460   11.3350 C   0  0  0  0  0  2  0  0  0  0  0  0
  -22.3000    2.2690   11.2150 C   0  0  0  0  0  2  0  0  0  0  0  0
  -19.0110   -2.3840   12.4110 C   0  0  0  0  0  2  0  0  0  0  0  0
  -20.4830    3.1890   13.3030 C   0  0  0  0  0  2  0  0  0  0  0  0
  -21.6350   -1.7320   13.5700 C   0  0  0  0  0  2  0  0  0  0  0  0
  -22.5180    3.6220   11.8990 C   0  0  0  0  0  2  0  0  0  0  0  0
  -19.7830   -3.4100   13.2450 C   0  0  0  0  0  2  0  0  0  0  0  0
  -21.9730    3.5540   13.3260 C   0  0  0  0  0  2  0  0  0  0  0  0
  -21.2890   -3.1630   13.1520 C   0  0  0  0  0  2  0  0  0  0  0  0
  -21.0240    0.2990   13.1800 H   0  0  0  0  0  0  0  0  0  0  0  0
  1  8  1  6  0  0  0
  1 12  1  0  0  0  0
  2  6  1  0  0  0  0
  2 18  1  1  0  0  0
  2 13  1  0  0  0  0
  3  7  1  1  0  0  0
  3  5  1  0  0  0  0
  3  9  1  0  0  0  0
  4  7  1  6  0  0  0
  4  8  1  0  0  0  0
  4  6  1  0  0  0  0
  5 10  1  1  0  0  0
  5  1  1  0  0  0  0
  6 11  1  6  0  0  0
  9  2  1  0  0  0  0
 10 14  1  0  0  0  0
 11 15  1  0  0  0  0
 12 16  1  0  0  0  0
 14 16  1  0  0  0  0
 17 15  1  0  0  0  0
 17 13  1  0  0  0  0
M  END
>  <MODEL>
4

>  <REMARK>
 VINA RESULT:    -6.726     29.977     31.590
 INTER + INTRA:          -6.726
 INTER:                  -6.726
 INTRA:                   0.000
 UNBOUND:                 0.000
  0 active torsions:
  status: ('A' for Active; 'I' for Inactive)

>  <TORSDO>
F 0

$$$$
./Esparteina.pdbqt
 OpenBabel10282519553D

 18 21  0  0  1  0  0  0  0  0999 V2000
  -44.2760   32.1610    2.6620 N   0  0  1  0  0  0  0  0  0  0  0  0
  -41.6340   31.8260    2.6510 N   0  0  1  0  0  4  0  0  0  0  0  0
  -43.0300   31.5320    0.5990 C   0  0  1  0  0  3  0  0  0  0  0  0
  -42.7460   33.7960    1.5700 C   0  0  1  0  0  3  0  0  0  0  0  0
  -44.3500   31.3530    1.4060 C   0  0  1  0  0  3  0  0  0  0  0  0
  -41.5290   33.3320    2.4040 C   0  0  2  0  0  3  0  0  0  0  0  0
  -42.8540   33.0160    0.2560 C   0  0  0  0  0  2  0  0  0  0  0  0
  -44.0630   33.6050    2.3570 C   0  0  0  0  0  2  0  0  0  0  0  0
  -41.7720   31.0600    1.3530 C   0  0  0  0  0  2  0  0  0  0  0  0
  -44.5740   29.8660    1.7380 C   0  0  0  0  0  2  0  0  0  0  0  0
  -40.1930   33.7010    1.7500 C   0  0  0  0  0  2  0  0  0  0  0  0
  -45.4870   31.9960    3.5090 C   0  0  0  0  0  2  0  0  0  0  0  0
  -40.4700   31.3310    3.4720 C   0  0  0  0  0  2  0  0  0  0  0  0
  -45.8320   29.6850    2.5920 C   0  0  0  0  0  2  0  0  0  0  0  0
  -39.0250   33.2060    2.6070 C   0  0  0  0  0  2  0  0  0  0  0  0
  -45.6940   30.5190    3.8670 C   0  0  0  0  0  2  0  0  0  0  0  0
  -39.1230   31.6980    2.8420 C   0  0  0  0  0  2  0  0  0  0  0  0
  -42.5790   31.6790    3.1870 H   0  0  0  0  0  0  0  0  0  0  0  0
  1  8  1  6  0  0  0
  1 12  1  0  0  0  0
  2 18  1  1  0  0  0
  2 13  1  0  0  0  0
  3  7  1  1  0  0  0
  3  9  1  0  0  0  0
  3  5  1  0  0  0  0
  4  7  1  6  0  0  0
  4  8  1  0  0  0  0
  4  6  1  0  0  0  0
  5 10  1  1  0  0  0
  5  1  1  0  0  0  0
  6 11  1  6  0  0  0
  6  2  1  0  0  0  0
  9  2  1  0  0  0  0
 10 14  1  0  0  0  0
 11 15  1  0  0  0  0
 12 16  1  0  0  0  0
 14 16  1  0  0  0  0
 15 17  1  0  0  0  0
 17 13  1  0  0  0  0
M  END
>  <MODEL>
5

>  <REMARK>
 VINA RESULT:    -6.691     19.830     22.227
 INTER + INTRA:          -6.691
 INTER:                  -6.691
 INTRA:                   0.000
 UNBOUND:                 0.000
  0 active torsions:
  status: ('A' for Active; 'I' for Inactive)

>  <TORSDO>
F 0

$$$$
./Esparteina.pdbqt
 OpenBabel10282519553D

 18 21  0  0  1  0  0  0  0  0999 V2000
  -41.3350   32.5850    2.7520 N   0  0  1  0  0  0  0  0  0  0  0  0
  -42.9900   31.3130    1.0980 N   0  0  1  0  0  4  0  0  0  0  0  0
  -43.8090   32.6920    3.0160 C   0  0  1  0  0  3  0  0  0  0  0  0
  -42.7240   33.8060    1.0840 C   0  0  1  0  0  3  0  0  0  0  0  0
  -42.4400   32.6470    3.7570 C   0  0  1  0  0  3  0  0  0  0  0  0
  -42.9080   32.5500    0.2020 C   0  0  2  0  0  3  0  0  0  0  0  0
  -43.8480   33.9340    2.1180 C   0  0  0  0  0  2  0  0  0  0  0  0
  -41.3750   33.7620    1.8390 C   0  0  0  0  0  2  0  0  0  0  0  0
  -44.0810   31.4540    2.1380 C   0  0  0  0  0  2  0  0  0  0  0  0
  -42.3820   31.4270    4.6950 C   0  0  0  0  0  2  0  0  0  0  0  0
  -44.1250   32.6530   -0.7230 C   0  0  0  0  0  2  0  0  0  0  0  0
  -39.9960   32.4880    3.3940 C   0  0  0  0  0  2  0  0  0  0  0  0
  -43.1590   30.0610    0.2760 C   0  0  0  0  0  2  0  0  0  0  0  0
  -41.0130   31.3330    5.3770 C   0  0  0  0  0  2  0  0  0  0  0  0
  -44.2690   31.3800   -1.5610 C   0  0  0  0  0  2  0  0  0  0  0  0
  -39.9250   31.2550    4.3050 C   0  0  0  0  0  2  0  0  0  0  0  0
  -44.3640   30.1460   -0.6630 C   0  0  0  0  0  2  0  0  0  0  0  0
  -42.0460   31.2880    1.6560 H   0  0  0  0  0  0  0  0  0  0  0  0
  1  8  1  1  0  0  0
  1 12  1  0  0  0  0
  1  5  1  0  0  0  0
  2 18  1  1  0  0  0
  2  9  1  0  0  0  0
  3  7  1  6  0  0  0
  3  5  1  0  0  0  0
  4  8  1  1  0  0  0
  4  7  1  0  0  0  0
  5 10  1  1  0  0  0
  6 11  1  1  0  0  0
  6  4  1  0  0  0  0
  6  2  1  0  0  0  0
  9  3  1  0  0  0  0
 10 14  1  0  0  0  0
 12 16  1  0  0  0  0
 13  2  1  0  0  0  0
 15 11  1  0  0  0  0
 15 17  1  0  0  0  0
 16 14  1  0  0  0  0
 17 13  1  0  0  0  0
M  END
>  <MODEL>
6

>  <REMARK>
 VINA RESULT:    -6.652     20.654     22.056
 INTER + INTRA:          -6.652
 INTER:                  -6.652
 INTRA:                   0.000
 UNBOUND:                 0.000
  0 active torsions:
  status: ('A' for Active; 'I' for Inactive)

>  <TORSDO>
F 0

$$$$
./Esparteina.pdbqt
 OpenBabel10282519553D

 18 21  0  0  1  0  0  0  0  0999 V2000
  -36.7430   38.8610   12.7040 N   0  0  1  0  0  0  0  0  0  0  0  0
  -35.2070   39.2310   10.5600 N   0  0  1  0  0  4  0  0  0  0  0  0
  -37.1140   37.6140   10.5800 C   0  0  1  0  0  3  0  0  0  0  0  0
  -37.5750   40.0490   10.6780 C   0  0  1  0  0  3  0  0  0  0  0  0
  -37.1630   37.5440   12.1360 C   0  0  1  0  0  3  0  0  0  0  0  0
  -36.1450   40.3820   10.1920 C   0  0  2  0  0  3  0  0  0  0  0  0
  -38.0660   38.7160   10.1020 C   0  0  0  0  0  2  0  0  0  0  0  0
  -37.6290   39.9590   12.2210 C   0  0  0  0  0  2  0  0  0  0  0  0
  -35.7100   37.9110   10.0160 C   0  0  0  0  0  2  0  0  0  0  0  0
  -36.2410   36.4210   12.6480 C   0  0  0  0  0  2  0  0  0  0  0  0
  -36.0910   40.6910    8.6920 C   0  0  0  0  0  2  0  0  0  0  0  0
  -36.7180   38.8490   14.1910 C   0  0  0  0  0  2  0  0  0  0  0  0
  -33.7970   39.5190   10.1130 C   0  0  0  0  0  2  0  0  0  0  0  0
  -36.2270   36.3880   14.1790 C   0  0  0  0  0  2  0  0  0  0  0  0
  -34.6540   40.9980    8.2610 C   0  0  0  0  0  2  0  0  0  0  0  0
  -35.7760   37.7520   14.7030 C   0  0  0  0  0  2  0  0  0  0  0  0
  -33.7200   39.8410    8.6180 C   0  0  0  0  0  2  0  0  0  0  0  0
  -35.2600   39.1440   11.6520 H   0  0  0  0  0  0  0  0  0  0  0  0
  1  8  1  1  0  0  0
  1 12  1  0  0  0  0
  2 18  1  1  0  0  0
  3  9  1  1  0  0  0
  3  5  1  0  0  0  0
  4  7  1  6  0  0  0
  4  8  1  0  0  0  0
  5 10  1  1  0  0  0
  5  1  1  0  0  0  0
  6 11  1  6  0  0  0
  6  2  1  0  0  0  0
  6  4  1  0  0  0  0
  7  3  1  0  0  0  0
  9  2  1  0  0  0  0
 10 14  1  0  0  0  0
 12 16  1  0  0  0  0
 13  2  1  0  0  0  0
 14 16  1  0  0  0  0
 15 17  1  0  0  0  0
 15 11  1  0  0  0  0
 17 13  1  0  0  0  0
M  END
>  <MODEL>
7

>  <REMARK>
 VINA RESULT:    -6.622     25.740     27.857
 INTER + INTRA:          -6.622
 INTER:                  -6.622
 INTRA:                   0.000
 UNBOUND:                 0.000
  0 active torsions:
  status: ('A' for Active; 'I' for Inactive)

>  <TORSDO>
F 0

$$$$
./Esparteina.pdbqt
 OpenBabel10282519553D

 18 21  0  0  1  0  0  0  0  0999 V2000
  -36.2290   40.7690   11.1830 N   0  0  1  0  0  0  0  0  0  0  0  0
  -36.3270   38.2570   12.0620 N   0  0  1  0  0  4  0  0  0  0  0  0
  -34.2180   39.3000   11.2180 C   0  0  1  0  0  3  0  0  0  0  0  0
  -35.2040   40.0930   13.3500 C   0  0  1  0  0  3  0  0  0  0  0  0
  -34.9700   40.4290   10.4520 C   0  0  1  0  0  3  0  0  0  0  0  0
  -36.0870   38.8280   13.4610 C   0  0  2  0  0  3  0  0  0  0  0  0
  -33.8850   39.7940   12.6300 C   0  0  0  0  0  2  0  0  0  0  0  0
  -35.9360   41.2130   12.5750 C   0  0  0  0  0  2  0  0  0  0  0  0
  -35.0230   37.9910   11.3410 C   0  0  0  0  0  2  0  0  0  0  0  0
  -35.2890   39.9770    9.0150 C   0  0  0  0  0  2  0  0  0  0  0  0
  -35.4900   37.7740   14.4000 C   0  0  0  0  0  2  0  0  0  0  0  0
  -37.0250   41.8090   10.4780 C   0  0  0  0  0  2  0  0  0  0  0  0
  -37.1940   37.0250   12.1220 C   0  0  0  0  0  2  0  0  0  0  0  0
  -36.0910   41.0520    8.2750 C   0  0  0  0  0  2  0  0  0  0  0  0
  -36.3930   36.5390   14.4620 C   0  0  0  0  0  2  0  0  0  0  0  0
  -37.3720   41.3470    9.0560 C   0  0  0  0  0  2  0  0  0  0  0  0
  -36.6210   35.9630   13.0640 C   0  0  0  0  0  2  0  0  0  0  0  0
  -36.8230   39.0560   11.4980 H   0  0  0  0  0  0  0  0  0  0  0  0
  1 12  1  6  0  0  0
  1  8  1  0  0  0  0
  2 18  1  6  0  0  0
  2 13  1  0  0  0  0
  2  6  1  0  0  0  0
  3  9  1  1  0  0  0
  3  7  1  0  0  0  0
  4  8  1  6  0  0  0
  4  6  1  0  0  0  0
  5 10  1  6  0  0  0
  5  1  1  0  0  0  0
  5  3  1  0  0  0  0
  6 11  1  1  0  0  0
  7  4  1  0  0  0  0
  9  2  1  0  0  0  0
 11 15  1  0  0  0  0
 13 17  1  0  0  0  0
 14 10  1  0  0  0  0
 14 16  1  0  0  0  0
 16 12  1  0  0  0  0
 17 15  1  0  0  0  0
M  END
>  <MODEL>
8

>  <REMARK>
 VINA RESULT:    -6.605     26.606     28.080
 INTER + INTRA:          -6.605
 INTER:                  -6.605
 INTRA:                   0.000
 UNBOUND:                 0.000
  0 active torsions:
  status: ('A' for Active; 'I' for Inactive)

>  <TORSDO>
F 0

$$$$
./Esparteina.pdbqt
 OpenBabel10282519553D

 18 21  0  0  1  0  0  0  0  0999 V2000
  -35.6310   39.4130    9.8630 N   0  0  1  0  0  0  0  0  0  0  0  0
  -36.0560   39.1280   12.4760 N   0  0  1  0  0  4  0  0  0  0  0  0
  -37.8990   38.9760   10.7940 C   0  0  1  0  0  3  0  0  0  0  0  0
  -36.1680   37.2020   10.8750 C   0  0  1  0  0  3  0  0  0  0  0  0
  -37.0850   39.7180    9.6930 C   0  0  1  0  0  3  0  0  0  0  0  0
  -35.7150   37.6490   12.2840 C   0  0  2  0  0  3  0  0  0  0  0  0
  -37.6620   37.4680   10.6570 C   0  0  0  0  0  2  0  0  0  0  0  0
  -35.3780   37.9470    9.7740 C   0  0  0  0  0  2  0  0  0  0  0  0
  -37.5260   39.3940   12.2300 C   0  0  0  0  0  2  0  0  0  0  0  0
  -37.3290   41.2360    9.7830 C   0  0  0  0  0  2  0  0  0  0  0  0
  -36.3160   36.7860   13.3980 C   0  0  0  0  0  2  0  0  0  0  0  0
  -34.7860   40.1330    8.8720 C   0  0  0  0  0  2  0  0  0  0  0  0
  -35.6200   39.6100   13.8370 C   0  0  0  0  0  2  0  0  0  0  0  0
  -36.4780   41.9830    8.7500 C   0  0  0  0  0  2  0  0  0  0  0  0
  -35.8480   37.2810   14.7690 C   0  0  0  0  0  2  0  0  0  0  0  0
  -35.0040   41.6480    8.9810 C   0  0  0  0  0  2  0  0  0  0  0  0
  -36.2020   38.7550   14.9650 C   0  0  0  0  0  2  0  0  0  0  0  0
  -35.5180   39.6620   11.6830 H   0  0  0  0  0  0  0  0  0  0  0  0
  1 12  1  6  0  0  0
  2 18  1  6  0  0  0
  2 13  1  0  0  0  0
  3  7  1  1  0  0  0
  3  9  1  0  0  0  0
  4  8  1  6  0  0  0
  4  6  1  0  0  0  0
  5 10  1  1  0  0  0
  5  1  1  0  0  0  0
  5  3  1  0  0  0  0
  6  2  1  0  0  0  0
  6 11  1  1  0  0  0
  7  4  1  0  0  0  0
  8  1  1  0  0  0  0
  9  2  1  0  0  0  0
 11 15  1  0  0  0  0
 12 16  1  0  0  0  0
 13 17  1  0  0  0  0
 14 16  1  0  0  0  0
 14 10  1  0  0  0  0
 15 17  1  0  0  0  0
M  END
>  <MODEL>
9

>  <REMARK>
 VINA RESULT:    -6.514     25.845     27.842
 INTER + INTRA:          -6.514
 INTER:                  -6.514
 INTRA:                   0.000
 UNBOUND:                 0.000
  0 active torsions:
  status: ('A' for Active; 'I' for Inactive)

>  <TORSDO>
F 0

$$$$
./Esparteina.pdbqt
 OpenBabel10282519553D

 18 21  0  0  1  0  0  0  0  0999 V2000
  -43.0730   32.3470    2.7280 N   0  0  1  0  0  0  0  0  0  0  0  0
  -41.0920   31.4660    4.2750 N   0  0  1  0  0  4  0  0  0  0  0  0
  -41.4960   30.5730    1.9750 C   0  0  1  0  0  3  0  0  0  0  0  0
  -40.6900   32.9010    2.2570 C   0  0  1  0  0  3  0  0  0  0  0  0
  -42.9650   31.0880    1.9300 C   0  0  1  0  0  3  0  0  0  0  0  0
  -40.2560   32.6190    3.7140 C   0  0  2  0  0  3  0  0  0  0  0  0
  -40.5730   31.6460    1.3860 C   0  0  0  0  0  2  0  0  0  0  0  0
  -42.1540   33.3960    2.2010 C   0  0  0  0  0  2  0  0  0  0  0  0
  -40.9990   30.2370    3.3960 C   0  0  0  0  0  2  0  0  0  0  0  0
  -43.9230   30.0170    2.4850 C   0  0  0  0  0  2  0  0  0  0  0  0
  -38.7550   32.3340    3.8370 C   0  0  0  0  0  2  0  0  0  0  0  0
  -44.4650   32.8690    2.7700 C   0  0  0  0  0  2  0  0  0  0  0  0
  -40.7070   31.1640    5.7010 C   0  0  0  0  0  2  0  0  0  0  0  0
  -45.3630   30.5400    2.5110 C   0  0  0  0  0  2  0  0  0  0  0  0
  -38.3830   32.0470    5.2940 C   0  0  0  0  0  2  0  0  0  0  0  0
  -45.4160   31.8150    3.3520 C   0  0  0  0  0  2  0  0  0  0  0  0
  -39.2090   30.8860    5.8480 C   0  0  0  0  0  2  0  0  0  0  0  0
  -42.1340   31.8000    4.2140 H   0  0  0  0  0  0  0  0  0  0  0  0
  1  8  1  6  0  0  0
  1 12  1  0  0  0  0
  2 18  1  1  0  0  0
  2 13  1  0  0  0  0
  3  7  1  1  0  0  0
  3  9  1  0  0  0  0
  4  7  1  6  0  0  0
  4  6  1  0  0  0  0
  5  3  1  0  0  0  0
  5 10  1  1  0  0  0
  5  1  1  0  0  0  0
  6 11  1  6  0  0  0
  6  2  1  0  0  0  0
  8  4  1  0  0  0  0
  9  2  1  0  0  0  0
 10 14  1  0  0  0  0
 11 15  1  0  0  0  0
 12 16  1  0  0  0  0
 13 17  1  0  0  0  0
 14 16  1  0  0  0  0
 15 17  1  0  0  0  0
M  END
>  <MODEL>
10

>  <REMARK>
 VINA RESULT:    -6.493     20.037     21.800
 INTER + INTRA:          -6.493
 INTER:                  -6.493
 INTRA:                   0.000
 UNBOUND:                 0.000
  0 active torsions:
  status: ('A' for Active; 'I' for Inactive)

>  <TORSDO>
F 0

$$$$
./Esparteina.pdbqt
 OpenBabel10282519553D

 18 21  0  0  1  0  0  0  0  0999 V2000
  -19.7750    0.5420   10.7100 N   0  0  1  0  0  0  0  0  0  0  0  0
  -20.5480   -1.0220   12.7210 N   0  0  1  0  0  4  0  0  0  0  0  0
  -19.4160    1.1750   13.0910 C   0  0  1  0  0  3  0  0  0  0  0  0
  -21.7140    1.1260   12.1610 C   0  0  1  0  0  3  0  0  0  0  0  0
  -18.8340    1.2270   11.6470 C   0  0  1  0  0  3  0  0  0  0  0  0
  -21.9120   -0.3380   12.6170 C   0  0  2  0  0  3  0  0  0  0  0  0
  -20.7750    1.8840   13.1050 C   0  0  0  0  0  2  0  0  0  0  0  0
  -21.1190    1.1870   10.7350 C   0  0  0  0  0  2  0  0  0  0  0  0
  -19.6120   -0.2550   13.6310 C   0  0  0  0  0  2  0  0  0  0  0  0
  -17.4500    0.5520   11.6060 C   0  0  0  0  0  2  0  0  0  0  0  0
  -22.6940   -0.4450   13.9310 C   0  0  0  0  0  2  0  0  0  0  0  0
  -19.2560    0.5090    9.3160 C   0  0  0  0  0  2  0  0  0  0  0  0
  -20.6960   -2.4590   13.1540 C   0  0  0  0  0  2  0  0  0  0  0  0
  -16.8990    0.5340   10.1770 C   0  0  0  0  0  2  0  0  0  0  0  0
  -22.8490   -1.9110   14.3430 C   0  0  0  0  0  2  0  0  0  0  0  0
  -17.8920   -0.1910    9.2680 C   0  0  0  0  0  2  0  0  0  0  0  0
  -21.4830   -2.5900   14.4610 C   0  0  0  0  0  2  0  0  0  0  0  0
  -20.1080   -0.9610   11.7190 H   0  0  0  0  0  0  0  0  0  0  0  0
  1 12  1  6  0  0  0
  1  8  1  0  0  0  0
  1  5  1  0  0  0  0
  2 18  1  6  0  0  0
  2 13  1  0  0  0  0
  2  9  1  0  0  0  0
  3  7  1  6  0  0  0
  3  9  1  0  0  0  0
  4  8  1  6  0  0  0
  4  6  1  0  0  0  0
  4  7  1  0  0  0  0
  5 10  1  1  0  0  0
  5  3  1  0  0  0  0
  6  2  1  0  0  0  0
  6 11  1  1  0  0  0
 11 15  1  0  0  0  0
 13 17  1  0  0  0  0
 14 10  1  0  0  0  0
 15 17  1  0  0  0  0
 16 12  1  0  0  0  0
 16 14  1  0  0  0  0
M  END
>  <MODEL>
11

>  <REMARK>
 VINA RESULT:    -6.390     30.216     31.715
 INTER + INTRA:          -6.390
 INTER:                  -6.390
 INTRA:                   0.000
 UNBOUND:                 0.000
  0 active torsions:
  status: ('A' for Active; 'I' for Inactive)

>  <TORSDO>
F 0

$$$$
./Esparteina.pdbqt
 OpenBabel10282519553D

 18 21  0  0  1  0  0  0  0  0999 V2000
  -36.2140   37.8240   11.7020 N   0  0  1  0  0  0  0  0  0  0  0  0
  -36.3530   40.4140   11.1000 N   0  0  1  0  0  4  0  0  0  0  0  0
  -34.1910   39.2740   11.6240 C   0  0  1  0  0  3  0  0  0  0  0  0
  -35.3910   38.7150    9.5270 C   0  0  1  0  0  3  0  0  0  0  0  0
  -34.8850   38.0770   12.3380 C   0  0  1  0  0  3  0  0  0  0  0  0
  -36.2580   39.9910    9.6330 C   0  0  2  0  0  3  0  0  0  0  0  0
  -34.0040   38.9280   10.1420 C   0  0  0  0  0  2  0  0  0  0  0  0
  -36.0640   37.5250   10.2490 C   0  0  0  0  0  2  0  0  0  0  0  0
  -34.9820   40.5940   11.7150 C   0  0  0  0  0  2  0  0  0  0  0  0
  -35.0580   38.3790   13.8390 C   0  0  0  0  0  2  0  0  0  0  0  0
  -35.7360   41.1320    8.7530 C   0  0  0  0  0  2  0  0  0  0  0  0
  -36.9570   36.7220   12.3700 C   0  0  0  0  0  2  0  0  0  0  0  0
  -37.2010   41.6520   11.2510 C   0  0  0  0  0  2  0  0  0  0  0  0
  -35.8040   37.2380   14.5380 C   0  0  0  0  0  2  0  0  0  0  0  0
  -36.6200   42.3730    8.9070 C   0  0  0  0  0  2  0  0  0  0  0  0
  -37.1580   37.0350   13.8590 C   0  0  0  0  0  2  0  0  0  0  0  0
  -36.7030   42.8020   10.3730 C   0  0  0  0  0  2  0  0  0  0  0  0
  -36.8070   39.5650   11.6240 H   0  0  0  0  0  0  0  0  0  0  0  0
  1  8  1  6  0  0  0
  1  5  1  0  0  0  0
  1 12  1  0  0  0  0
  2 13  1  0  0  0  0
  2 18  1  1  0  0  0
  2  9  1  0  0  0  0
  3  7  1  6  0  0  0
  3  9  1  0  0  0  0
  3  5  1  0  0  0  0
  4  6  1  0  0  0  0
  4  7  1  1  0  0  0
  4  8  1  0  0  0  0
  5 10  1  1  0  0  0
  6 11  1  6  0  0  0
  6  2  1  0  0  0  0
 10 14  1  0  0  0  0
 11 15  1  0  0  0  0
 12 16  1  0  0  0  0
 15 17  1  0  0  0  0
 16 14  1  0  0  0  0
 17 13  1  0  0  0  0
M  END
>  <MODEL>
12

>  <REMARK>
 VINA RESULT:    -6.345     26.172     28.006
 INTER + INTRA:          -6.345
 INTER:                  -6.345
 INTRA:                   0.000
 UNBOUND:                 0.000
  0 active torsions:
  status: ('A' for Active; 'I' for Inactive)

>  <TORSDO>
F 0

$$$$
./Esparteina.pdbqt
 OpenBabel10282519553D

 18 21  0  0  1  0  0  0  0  0999 V2000
  -33.8560   19.5140   19.6880 N   0  0  1  0  0  0  0  0  0  0  0  0
  -35.9540   21.0100   20.3600 N   0  0  1  0  0  4  0  0  0  0  0  0
  -33.9050   21.9730   19.3000 C   0  0  1  0  0  3  0  0  0  0  0  0
  -35.3820   20.4850   17.9750 C   0  0  1  0  0  3  0  0  0  0  0  0
  -33.0170   20.7520   19.6800 C   0  0  1  0  0  3  0  0  0  0  0  0
  -36.5360   20.6580   18.9890 C   0  0  2  0  0  3  0  0  0  0  0  0
  -34.5040   21.7390   17.9080 C   0  0  0  0  0  2  0  0  0  0  0  0
  -34.4840   19.2850   18.3560 C   0  0  0  0  0  2  0  0  0  0  0  0
  -35.0620   22.2310   20.2850 C   0  0  0  0  0  2  0  0  0  0  0  0
  -32.3730   20.9710   21.0620 C   0  0  0  0  0  2  0  0  0  0  0  0
  -37.5680   21.6960   18.5360 C   0  0  0  0  0  2  0  0  0  0  0  0
  -33.0800   18.3120   20.0950 C   0  0  0  0  0  2  0  0  0  0  0  0
  -37.0480   21.1770   21.3840 C   0  0  0  0  0  2  0  0  0  0  0  0
  -31.5540   19.7450   21.4780 C   0  0  0  0  0  2  0  0  0  0  0  0
  -38.6780   21.8380   19.5800 C   0  0  0  0  0  2  0  0  0  0  0  0
  -32.4630   18.5150   21.4840 C   0  0  0  0  0  2  0  0  0  0  0  0
  -38.0960   22.2040   20.9460 C   0  0  0  0  0  2  0  0  0  0  0  0
  -35.2960   20.1740   20.6250 H   0  0  0  0  0  0  0  0  0  0  0  0
  1  8  1  6  0  0  0
  1 12  1  0  0  0  0
  2 18  1  1  0  0  0
  2 13  1  0  0  0  0
  3  7  1  6  0  0  0
  3  5  1  0  0  0  0
  3  9  1  0  0  0  0
  4  7  1  1  0  0  0
  4  8  1  0  0  0  0
  4  6  1  0  0  0  0
  5  1  1  0  0  0  0
  5 10  1  1  0  0  0
  6 11  1  6  0  0  0
  6  2  1  0  0  0  0
  9  2  1  0  0  0  0
 10 14  1  0  0  0  0
 11 15  1  0  0  0  0
 12 16  1  0  0  0  0
 14 16  1  0  0  0  0
 15 17  1  0  0  0  0
 17 13  1  0  0  0  0
M  END
>  <MODEL>
13

>  <REMARK>
 VINA RESULT:    -6.275     28.276     30.166
 INTER + INTRA:          -6.275
 INTER:                  -6.275
 INTRA:                   0.000
 UNBOUND:                 0.000
  0 active torsions:
  status: ('A' for Active; 'I' for Inactive)

>  <TORSDO>
F 0

$$$$
./Esparteina.pdbqt
 OpenBabel10282519553D

 18 21  0  0  1  0  0  0  0  0999 V2000
  -42.9950   31.2160    2.3620 N   0  0  1  0  0  0  0  0  0  0  0  0
  -40.6560   31.9070    3.4310 N   0  0  1  0  0  4  0  0  0  0  0  0
  -42.7970   33.0410    4.0450 C   0  0  1  0  0  3  0  0  0  0  0  0
  -42.4220   30.6860    4.7270 C   0  0  1  0  0  3  0  0  0  0  0  0
  -43.5360   32.5510    2.7650 C   0  0  1  0  0  3  0  0  0  0  0  0
  -40.9030   30.8090    4.4680 C   0  0  2  0  0  3  0  0  0  0  0  0
  -43.0240   32.0240    5.1700 C   0  0  0  0  0  2  0  0  0  0  0  0
  -43.1660   30.2180    3.4550 C   0  0  0  0  0  2  0  0  0  0  0  0
  -41.2780   33.2200    3.8560 C   0  0  0  0  0  2  0  0  0  0  0  0
  -43.3560   33.5690    1.6230 C   0  0  0  0  0  2  0  0  0  0  0  0
  -40.1040   31.0620    5.7510 C   0  0  0  0  0  2  0  0  0  0  0  0
  -43.6230   30.7100    1.1120 C   0  0  0  0  0  2  0  0  0  0  0  0
  -39.1840   32.0530    3.1390 C   0  0  0  0  0  2  0  0  0  0  0  0
  -44.0180   33.0640    0.3380 C   0  0  0  0  0  2  0  0  0  0  0  0
  -38.6120   31.1900    5.4360 C   0  0  0  0  0  2  0  0  0  0  0  0
  -43.4170   31.7080   -0.0350 C   0  0  0  0  0  2  0  0  0  0  0  0
  -38.3660   32.2960    4.4100 C   0  0  0  0  0  2  0  0  0  0  0  0
  -41.2020   31.5940    2.5330 H   0  0  0  0  0  0  0  0  0  0  0  0
  1 12  1  6  0  0  0
  1  5  1  0  0  0  0
  1  8  1  0  0  0  0
  2 18  1  6  0  0  0
  2  9  1  0  0  0  0
  2  6  1  0  0  0  0
  3  9  1  6  0  0  0
  3  7  1  0  0  0  0
  4  8  1  6  0  0  0
  4  7  1  0  0  0  0
  5 10  1  6  0  0  0
  5  3  1  0  0  0  0
  6  4  1  0  0  0  0
  6 11  1  1  0  0  0
 13  2  1  0  0  0  0
 13 17  1  0  0  0  0
 14 10  1  0  0  0  0
 15 11  1  0  0  0  0
 16 14  1  0  0  0  0
 16 12  1  0  0  0  0
 17 15  1  0  0  0  0
M  END
>  <MODEL>
14

>  <REMARK>
 VINA RESULT:    -6.255     20.135     21.985
 INTER + INTRA:          -6.255
 INTER:                  -6.255
 INTRA:                   0.000
 UNBOUND:                 0.000
  0 active torsions:
  status: ('A' for Active; 'I' for Inactive)

>  <TORSDO>
F 0

$$$$
./Esparteina.pdbqt
 OpenBabel10282519553D

 18 21  0  0  1  0  0  0  0  0999 V2000
  -35.7860   40.8320   11.0570 N   0  0  1  0  0  0  0  0  0  0  0  0
  -37.1170   38.6220   11.7170 N   0  0  1  0  0  4  0  0  0  0  0  0
  -36.0640   38.9320    9.4710 C   0  0  1  0  0  3  0  0  0  0  0  0
  -34.6220   38.6690   11.4710 C   0  0  1  0  0  3  0  0  0  0  0  0
  -35.9820   40.4800    9.6170 C   0  0  1  0  0  3  0  0  0  0  0  0
  -35.7990   38.1050   12.2980 C   0  0  2  0  0  3  0  0  0  0  0  0
  -34.7590   38.3140    9.9870 C   0  0  0  0  0  2  0  0  0  0  0  0
  -34.5440   40.2090   11.5950 C   0  0  0  0  0  2  0  0  0  0  0  0
  -37.2370   38.2960   10.2430 C   0  0  0  0  0  2  0  0  0  0  0  0
  -37.2670   41.1350    9.0750 C   0  0  0  0  0  2  0  0  0  0  0  0
  -35.7840   36.5740   12.3760 C   0  0  0  0  0  2  0  0  0  0  0  0
  -35.7510   42.3030   11.2760 C   0  0  0  0  0  2  0  0  0  0  0  0
  -38.2940   38.1020   12.5020 C   0  0  0  0  0  2  0  0  0  0  0  0
  -37.2280   42.6530    9.2780 C   0  0  0  0  0  2  0  0  0  0  0  0
  -36.9770   36.0680   13.1920 C   0  0  0  0  0  2  0  0  0  0  0  0
  -37.0430   42.9530   10.7660 C   0  0  0  0  0  2  0  0  0  0  0  0
  -38.2930   36.5750   12.6010 C   0  0  0  0  0  2  0  0  0  0  0  0
  -37.0590   39.7150   11.7780 H   0  0  0  0  0  0  0  0  0  0  0  0
  1 12  1  6  0  0  0
  1  8  1  0  0  0  0
  2 18  1  1  0  0  0
  2  6  1  0  0  0  0
  2 13  1  0  0  0  0
  3  5  1  0  0  0  0
  3  7  1  1  0  0  0
  3  9  1  0  0  0  0
  4  7  1  6  0  0  0
  4  8  1  0  0  0  0
  4  6  1  0  0  0  0
  5 10  1  1  0  0  0
  5  1  1  0  0  0  0
  6 11  1  6  0  0  0
  9  2  1  0  0  0  0
 10 14  1  0  0  0  0
 11 15  1  0  0  0  0
 13 17  1  0  0  0  0
 14 16  1  0  0  0  0
 16 12  1  0  0  0  0
 17 15  1  0  0  0  0
M  END
>  <MODEL>
15

>  <REMARK>
 VINA RESULT:    -6.249     26.163     27.896
 INTER + INTRA:          -6.249
 INTER:                  -6.249
 INTRA:                   0.000
 UNBOUND:                 0.000
  0 active torsions:
  status: ('A' for Active; 'I' for Inactive)

>  <TORSDO>
F 0

$$$$
./Esparteina.pdbqt
 OpenBabel10282519553D

 18 21  0  0  1  0  0  0  0  0999 V2000
  -41.3200   32.7110    3.0550 N   0  0  1  0  0  0  0  0  0  0  0  0
  -41.5610   30.1200    3.6230 N   0  0  1  0  0  4  0  0  0  0  0  0
  -40.7640   31.7920    5.3020 C   0  0  1  0  0  3  0  0  0  0  0  0
  -43.1240   31.8520    4.5430 C   0  0  1  0  0  3  0  0  0  0  0  0
  -40.3900   32.8460    4.2170 C   0  0  1  0  0  3  0  0  0  0  0  0
  -43.0200   30.4200    3.9700 C   0  0  2  0  0  3  0  0  0  0  0  0
  -42.2070   32.0370    5.7570 C   0  0  0  0  0  2  0  0  0  0  0  0
  -42.7360   32.9040    3.4780 C   0  0  0  0  0  2  0  0  0  0  0  0
  -40.6530   30.3340    4.8150 C   0  0  0  0  0  2  0  0  0  0  0  0
  -38.9310   32.6470    3.7620 C   0  0  0  0  0  2  0  0  0  0  0  0
  -43.5980   29.3630    4.9190 C   0  0  0  0  0  2  0  0  0  0  0  0
  -40.9870   33.6560    1.9560 C   0  0  0  0  0  2  0  0  0  0  0  0
  -41.4150   28.7330    3.0500 C   0  0  0  0  0  2  0  0  0  0  0  0
  -38.5740   33.6330    2.6450 C   0  0  0  0  0  2  0  0  0  0  0  0
  -43.4570   27.9650    4.3120 C   0  0  0  0  0  2  0  0  0  0  0  0
  -39.5450   33.4390    1.4800 C   0  0  0  0  0  2  0  0  0  0  0  0
  -41.9950   27.6620    3.9770 C   0  0  0  0  0  2  0  0  0  0  0  0
  -41.2700   30.8790    2.8860 H   0  0  0  0  0  0  0  0  0  0  0  0
  1 12  1  6  0  0  0
  1  8  1  0  0  0  0
  1  5  1  0  0  0  0
  2 18  1  6  0  0  0
  2  6  1  0  0  0  0
  2  9  1  0  0  0  0
  3  9  1  6  0  0  0
  3  7  1  0  0  0  0
  4  8  1  6  0  0  0
  4  7  1  0  0  0  0
  5 10  1  6  0  0  0
  5  3  1  0  0  0  0
  6  4  1  0  0  0  0
  6 11  1  1  0  0  0
 13  2  1  0  0  0  0
 13 17  1  0  0  0  0
 14 10  1  0  0  0  0
 15 11  1  0  0  0  0
 16 12  1  0  0  0  0
 16 14  1  0  0  0  0
 17 15  1  0  0  0  0
M  END
>  <MODEL>
16

>  <REMARK>
 VINA RESULT:    -6.215     20.129     21.688
 INTER + INTRA:          -6.215
 INTER:                  -6.215
 INTRA:                   0.000
 UNBOUND:                 0.000
  0 active torsions:
  status: ('A' for Active; 'I' for Inactive)

>  <TORSDO>
F 0

$$$$
./Esparteina.pdbqt
 OpenBabel10282519553D

 18 21  0  0  1  0  0  0  0  0999 V2000
  -40.5410   30.9460    3.0520 N   0  0  1  0  0  0  0  0  0  0  0  0
  -43.1010   31.5400    3.4790 N   0  0  1  0  0  4  0  0  0  0  0  0
  -42.0060   31.8550    1.2540 C   0  0  1  0  0  3  0  0  0  0  0  0
  -42.3870   29.5610    2.1140 C   0  0  1  0  0  3  0  0  0  0  0  0
  -40.5680   31.8390    1.8530 C   0  0  1  0  0  3  0  0  0  0  0  0
  -43.4060   30.0750    3.1570 C   0  0  2  0  0  3  0  0  0  0  0  0
  -42.3920   30.4270    0.8510 C   0  0  0  0  0  2  0  0  0  0  0  0
  -40.9530   29.5590    2.6940 C   0  0  0  0  0  2  0  0  0  0  0  0
  -43.0770   32.3880    2.2260 C   0  0  0  0  0  2  0  0  0  0  0  0
  -40.1350   33.2660    2.2380 C   0  0  0  0  0  2  0  0  0  0  0  0
  -44.8580   29.8930    2.7010 C   0  0  0  0  0  2  0  0  0  0  0  0
  -39.2050   30.9230    3.7060 C   0  0  0  0  0  2  0  0  0  0  0  0
  -44.0680   32.0800    4.5020 C   0  0  0  0  0  2  0  0  0  0  0  0
  -38.7510   33.2540    2.8930 C   0  0  0  0  0  2  0  0  0  0  0  0
  -45.8230   30.4310    3.7600 C   0  0  0  0  0  2  0  0  0  0  0  0
  -38.7860   32.3400    4.1190 C   0  0  0  0  0  2  0  0  0  0  0  0
  -45.5260   31.8990    4.0710 C   0  0  0  0  0  2  0  0  0  0  0  0
  -42.0760   31.5500    3.8670 H   0  0  0  0  0  0  0  0  0  0  0  0
  1  8  1  6  0  0  0
  1 12  1  0  0  0  0
  2 18  1  1  0  0  0
  2 13  1  0  0  0  0
  3  7  1  1  0  0  0
  3  5  1  0  0  0  0
  3  9  1  0  0  0  0
  4  7  1  6  0  0  0
  4  8  1  0  0  0  0
  4  6  1  0  0  0  0
  5 10  1  1  0  0  0
  5  1  1  0  0  0  0
  6 11  1  6  0  0  0
  6  2  1  0  0  0  0
  9  2  1  0  0  0  0
 10 14  1  0  0  0  0
 11 15  1  0  0  0  0
 12 16  1  0  0  0  0
 14 16  1  0  0  0  0
 15 17  1  0  0  0  0
 17 13  1  0  0  0  0
M  END
>  <MODEL>
17

>  <REMARK>
 VINA RESULT:    -6.157     19.912     21.642
 INTER + INTRA:          -6.157
 INTER:                  -6.157
 INTRA:                   0.000
 UNBOUND:                 0.000
  0 active torsions:
  status: ('A' for Active; 'I' for Inactive)

>  <TORSDO>
F 0

$$$$
./Esparteina.pdbqt
 OpenBabel10282519553D

 18 21  0  0  1  0  0  0  0  0999 V2000
  -34.9360   23.1680  -14.3040 N   0  0  1  0  0  0  0  0  0  0  0  0
  -33.8280   23.3220  -16.7210 N   0  0  1  0  0  4  0  0  0  0  0  0
  -33.4140   21.4010  -15.1770 C   0  0  1  0  0  3  0  0  0  0  0  0
  -35.6610   21.6990  -16.1810 C   0  0  1  0  0  3  0  0  0  0  0  0
  -33.8730   22.1900  -13.9160 C   0  0  1  0  0  3  0  0  0  0  0  0
  -35.1020   22.6610  -17.2530 C   0  0  2  0  0  3  0  0  0  0  0  0
  -34.6180   20.6560  -15.7650 C   0  0  0  0  0  2  0  0  0  0  0  0
  -36.1040   22.4730  -14.9170 C   0  0  0  0  0  2  0  0  0  0  0  0
  -32.8110   22.2910  -16.2820 C   0  0  0  0  0  2  0  0  0  0  0  0
  -32.6770   22.9240  -13.2810 C   0  0  0  0  0  2  0  0  0  0  0  0
  -34.8520   21.9660  -18.5960 C   0  0  0  0  0  2  0  0  0  0  0  0
  -35.3870   23.9950  -13.1530 C   0  0  0  0  0  2  0  0  0  0  0  0
  -33.2530   24.2790  -17.7340 C   0  0  0  0  0  2  0  0  0  0  0  0
  -33.1300   23.7610  -12.0810 C   0  0  0  0  0  2  0  0  0  0  0  0
  -34.2850   22.9580  -19.6150 C   0  0  0  0  0  2  0  0  0  0  0  0
  -34.2020   24.7510  -12.5390 C   0  0  0  0  0  2  0  0  0  0  0  0
  -33.0050   23.6080  -19.0870 C   0  0  0  0  0  2  0  0  0  0  0  0
  -34.1290   23.8530  -15.8100 H   0  0  0  0  0  0  0  0  0  0  0  0
  1  8  1  1  0  0  0
  1  5  1  0  0  0  0
  1 12  1  0  0  0  0
  2  9  1  0  0  0  0
  2 18  1  1  0  0  0
  3  9  1  6  0  0  0
  3  5  1  0  0  0  0
  4  7  1  1  0  0  0
  4  8  1  0  0  0  0
  5 10  1  6  0  0  0
  6 11  1  6  0  0  0
  6  2  1  0  0  0  0
  6  4  1  0  0  0  0
  7  3  1  0  0  0  0
 10 14  1  0  0  0  0
 12 16  1  0  0  0  0
 13  2  1  0  0  0  0
 15 17  1  0  0  0  0
 15 11  1  0  0  0  0
 16 14  1  0  0  0  0
 17 13  1  0  0  0  0
M  END
>  <MODEL>
18

>  <REMARK>
 VINA RESULT:    -6.155      9.238     11.575
 INTER + INTRA:          -6.155
 INTER:                  -6.155
 INTRA:                   0.000
 UNBOUND:                 0.000
  0 active torsions:
  status: ('A' for Active; 'I' for Inactive)

>  <TORSDO>
F 0

$$$$
./Esparteina.pdbqt
 OpenBabel10282519553D

 18 21  0  0  1  0  0  0  0  0999 V2000
  -42.6630   32.4710    1.0810 N   0  0  1  0  0  0  0  0  0  0  0  0
  -42.9960   32.0440    3.6880 N   0  0  1  0  0  4  0  0  0  0  0  0
  -41.2210   30.8930    2.3580 C   0  0  1  0  0  3  0  0  0  0  0  0
  -41.0490   33.3310    2.7720 C   0  0  1  0  0  3  0  0  0  0  0  0
  -41.9230   31.1750    0.9970 C   0  0  1  0  0  3  0  0  0  0  0  0
  -42.0870   33.2530    3.9160 C   0  0  2  0  0  3  0  0  0  0  0  0
  -40.2420   32.0340    2.6590 C   0  0  0  0  0  2  0  0  0  0  0  0
  -41.7400   33.5930    1.4140 C   0  0  0  0  0  2  0  0  0  0  0  0
  -42.1950   30.7670    3.5460 C   0  0  0  0  0  2  0  0  0  0  0  0
  -42.8910   30.0270    0.6490 C   0  0  0  0  0  2  0  0  0  0  0  0
  -41.4340   33.2090    5.3020 C   0  0  0  0  0  2  0  0  0  0  0  0
  -43.4020   32.7790   -0.1720 C   0  0  0  0  0  2  0  0  0  0  0  0
  -44.0330   31.9350    4.7780 C   0  0  0  0  0  2  0  0  0  0  0  0
  -43.6400   30.3280   -0.6530 C   0  0  0  0  0  2  0  0  0  0  0  0
  -42.5020   33.1170    6.3940 C   0  0  0  0  0  2  0  0  0  0  0  0
  -44.3890   31.6520   -0.5040 C   0  0  0  0  0  2  0  0  0  0  0  0
  -43.4020   31.9000    6.1730 C   0  0  0  0  0  2  0  0  0  0  0  0
  -43.4710   32.2100    2.7140 H   0  0  0  0  0  0  0  0  0  0  0  0
  1 12  1  6  0  0  0
  1  8  1  0  0  0  0
  2 18  1  6  0  0  0
  2  6  1  0  0  0  0
  2 13  1  0  0  0  0
  3  7  1  1  0  0  0
  3  9  1  0  0  0  0
  4  8  1  6  0  0  0
  4  6  1  0  0  0  0
  5 10  1  1  0  0  0
  5  1  1  0  0  0  0
  5  3  1  0  0  0  0
  6 11  1  1  0  0  0
  7  4  1  0  0  0  0
  9  2  1  0  0  0  0
 11 15  1  0  0  0  0
 13 17  1  0  0  0  0
 14 16  1  0  0  0  0
 14 10  1  0  0  0  0
 16 12  1  0  0  0  0
 17 15  1  0  0  0  0
M  END
>  <MODEL>
19

>  <REMARK>
 VINA RESULT:    -6.148     20.486     21.872
 INTER + INTRA:          -6.148
 INTER:                  -6.148
 INTRA:                   0.000
 UNBOUND:                 0.000
  0 active torsions:
  status: ('A' for Active; 'I' for Inactive)

>  <TORSDO>
F 0

$$$$
./Esparteina.pdbqt
 OpenBabel10282519553D

 18 21  0  0  1  0  0  0  0  0999 V2000
  -36.2610   37.4770   12.3550 N   0  0  1  0  0  0  0  0  0  0  0  0
  -36.8610   39.4330   10.6510 N   0  0  1  0  0  4  0  0  0  0  0  0
  -36.2130   39.8750   13.0250 C   0  0  1  0  0  3  0  0  0  0  0  0
  -34.5190   39.0020   11.4380 C   0  0  1  0  0  3  0  0  0  0  0  0
  -36.5310   38.4210   13.4830 C   0  0  1  0  0  3  0  0  0  0  0  0
  -35.3920   39.3950   10.2240 C   0  0  2  0  0  3  0  0  0  0  0  0
  -34.7380   39.9570   12.6170 C   0  0  0  0  0  2  0  0  0  0  0  0
  -34.8410   37.5660   11.9110 C   0  0  0  0  0  2  0  0  0  0  0  0
  -37.0690   40.3530   11.8350 C   0  0  0  0  0  2  0  0  0  0  0  0
  -38.0010   38.3130   13.9320 C   0  0  0  0  0  2  0  0  0  0  0  0
  -34.9580   40.7220    9.5920 C   0  0  0  0  0  2  0  0  0  0  0  0
  -36.5940   36.0700   12.7070 C   0  0  0  0  0  2  0  0  0  0  0  0
  -37.7510   39.8030    9.4920 C   0  0  0  0  0  2  0  0  0  0  0  0
  -38.3450   36.8710   14.3170 C   0  0  0  0  0  2  0  0  0  0  0  0
  -35.8630   41.0710    8.4070 C   0  0  0  0  0  2  0  0  0  0  0  0
  -38.0660   35.9550   13.1250 C   0  0  0  0  0  2  0  0  0  0  0  0
  -37.3290   41.1220    8.8380 C   0  0  0  0  0  2  0  0  0  0  0  0
  -37.0900   38.4240   11.0120 H   0  0  0  0  0  0  0  0  0  0  0  0
  1  8  1  1  0  0  0
  1 12  1  0  0  0  0
  1  5  1  0  0  0  0
  2 18  1  1  0  0  0
  2  9  1  0  0  0  0
  3  9  1  6  0  0  0
  3  5  1  0  0  0  0
  4  8  1  1  0  0  0
  4  7  1  0  0  0  0
  5 10  1  6  0  0  0
  6 11  1  1  0  0  0
  6  2  1  0  0  0  0
  6  4  1  0  0  0  0
  7  3  1  0  0  0  0
 10 14  1  0  0  0  0
 12 16  1  0  0  0  0
 13  2  1  0  0  0  0
 15 17  1  0  0  0  0
 15 11  1  0  0  0  0
 16 14  1  0  0  0  0
 17 13  1  0  0  0  0
M  END
>  <MODEL>
20

>  <REMARK>
 VINA RESULT:    -6.047     26.940     28.224
 INTER + INTRA:          -6.047
 INTER:                  -6.047
 INTRA:                   0.000
 UNBOUND:                 0.000
  0 active torsions:
  status: ('A' for Active; 'I' for Inactive)

>  <TORSDO>
F 0

$$$$
