./Esquisandrina.pdbqt
 OpenBabel10282519553D

 32 34  0  0  1  0  0  0  0  0999 V2000
  -41.9800   27.2020    3.9140 C   0  0  1  0  0  0  0  0  0  0  0  0
  -43.4600   26.8880    3.5570 C   0  0  2  0  0  3  0  0  0  0  0  0
  -41.3550   28.2850    2.9970 C   0  0  0  0  0  2  0  0  0  0  0  0
  -44.3770   28.1200    3.7080 C   0  0  0  0  0  2  0  0  0  0  0  0
  -41.5450   29.6730    3.5190 C   0  0  0  0  0  0  0  0  0  0  0  0
  -44.4630   28.8600    2.4070 C   0  0  0  0  0  0  0  0  0  0  0  0
  -41.7490   27.4800    5.3990 C   0  0  0  0  0  1  0  0  0  0  0  0
  -44.0060   25.7350    4.4060 C   0  0  0  0  0  1  0  0  0  0  0  0
  -42.6640   30.4300    3.1440 C   0  0  0  0  0  0  0  0  0  0  0  0
  -43.6150   29.9400    2.1500 C   0  0  0  0  0  0  0  0  0  0  0  0
  -40.5910   30.2170    4.3740 C   0  0  0  0  0  3  0  0  0  0  0  0
  -45.3790   28.4290    1.4420 C   0  0  0  0  0  3  0  0  0  0  0  0
  -42.8580   31.6920    3.7190 C   0  0  0  0  0  0  0  0  0  0  0  0
  -43.6720   30.5660    0.8930 C   0  0  0  0  0  0  0  0  0  0  0  0
  -40.7770   31.4940    4.9230 C   0  0  0  0  0  0  0  0  0  0  0  0
  -45.4490   29.0770    0.2130 C   0  0  0  0  0  0  0  0  0  0  0  0
  -41.9360   32.2240    4.6310 C   0  0  0  0  0  0  0  0  0  0  0  0
  -44.5790   30.1480   -0.0800 C   0  0  0  0  0  0  0  0  0  0  0  0
  -41.2160   26.0550    3.5440 O   0  0  0  0  0  0  0  0  0  0  0  0
  -40.8510   26.1410    2.6480 H   0  0  0  0  0  0  0  0  0  0  0  0
  -44.0540   32.3030    3.4630 O   0  0  0  0  0  0  0  0  0  0  0  0
  -45.1160   31.8950    4.3230 C   0  0  0  0  0  1  0  0  0  0  0  0
  -39.7590   31.8600    5.7400 O   0  0  0  0  0  0  0  0  0  0  0  0
  -38.4520   31.9290    5.1840 C   0  0  0  0  0  1  0  0  0  0  0  0
  -42.8640   31.6540    0.7080 O   0  0  0  0  0  0  0  0  0  0  0  0
  -43.5710   32.8320    0.3240 C   0  0  0  0  0  1  0  0  0  0  0  0
  -46.3100   28.7850   -0.7950 O   0  0  0  0  0  0  0  0  0  0  0  0
  -47.6590   29.2000   -0.6210 C   0  0  0  0  0  1  0  0  0  0  0  0
  -42.1180   33.4720    5.1760 O   0  0  0  0  0  0  0  0  0  0  0  0
  -42.5930   33.4020    6.5230 C   0  0  0  0  0  1  0  0  0  0  0  0
  -44.5780   30.6880   -1.3390 O   0  0  0  0  0  0  0  0  0  0  0  0
  -43.6650   30.0140   -2.2070 C   0  0  0  0  0  1  0  0  0  0  0  0
  1  7  1  1  0  0  0
  2  4  1  0  0  0  0
  2  1  1  0  0  0  0
  2  8  1  1  0  0  0
  3  5  1  0  0  0  0
  3  1  1  0  0  0  0
  5 11  1  0  0  0  0
  6  4  1  0  0  0  0
  9  5  2  0  0  0  0
  9 13  1  0  0  0  0
 10  6  1  0  0  0  0
 10  9  1  0  0  0  0
 11 15  2  0  0  0  0
 12  6  2  0  0  0  0
 13 17  2  0  0  0  0
 14 10  2  0  0  0  0
 15 23  1  0  0  0  0
 16 12  1  0  0  0  0
 17 15  1  0  0  0  0
 17 29  1  0  0  0  0
 18 16  2  0  0  0  0
 18 14  1  0  0  0  0
 19  1  1  0  0  0  0
 20 19  1  0  0  0  0
 21 13  1  0  0  0  0
 21 22  1  0  0  0  0
 24 23  1  0  0  0  0
 25 14  1  0  0  0  0
 26 25  1  0  0  0  0
 27 28  1  0  0  0  0
 27 16  1  0  0  0  0
 29 30  1  0  0  0  0
 31 18  1  0  0  0  0
 32 31  1  0  0  0  0
M  END
>  <MODEL>
1

>  <REMARK>
 VINA RESULT:    -6.376      0.000      0.000
 INTER + INTRA:          -8.768
 INTER:                  -8.798
 INTRA:                   0.030
 UNBOUND:                 0.030
  7 active torsions:
  status: ('A' for Active; 'I' for Inactive)
    1  A    between atoms: O1_1  and  C1_8 
    2  A    between atoms: O2_2  and  C13_20 
    3  A    between atoms: O3_3  and  C14_21 
    4  A    between atoms: O4_4  and  C15_22 
    5  A    between atoms: O5_5  and  C16_23 
    6  A    between atoms: O6_6  and  C17_24 
    7  A    between atoms: O7_7  and  C18_25 

>  <TORSDO>
F 7

$$$$
./Esquisandrina.pdbqt
 OpenBabel10282519553D

 32 34  0  0  1  0  0  0  0  0999 V2000
  -44.0120   30.6650   -1.2770 C   0  0  1  0  0  0  0  0  0  0  0  0
  -43.6400   32.1250   -0.8960 C   0  0  2  0  0  3  0  0  0  0  0  0
  -43.3900   29.6140   -0.3210 C   0  0  0  0  0  2  0  0  0  0  0  0
  -44.1420   32.5140    0.5110 C   0  0  0  0  0  2  0  0  0  0  0  0
  -44.2640   29.2990    0.8490 C   0  0  0  0  0  0  0  0  0  0  0  0
  -43.0850   32.2230    1.5330 C   0  0  0  0  0  0  0  0  0  0  0  0
  -45.5090   30.4480   -1.4990 C   0  0  0  0  0  1  0  0  0  0  0  0
  -44.1760   33.1250   -1.9260 C   0  0  0  0  0  1  0  0  0  0  0  0
  -44.1420   30.0180    2.0460 C   0  0  0  0  0  0  0  0  0  0  0  0
  -43.0900   31.0140    2.2310 C   0  0  0  0  0  0  0  0  0  0  0  0
  -45.1980   28.2710    0.7470 C   0  0  0  0  0  3  0  0  0  0  0  0
  -42.0740   33.1660    1.7500 C   0  0  0  0  0  3  0  0  0  0  0  0
  -45.0350   29.7570    3.0940 C   0  0  0  0  0  0  0  0  0  0  0  0
  -42.0440   30.7420    3.1300 C   0  0  0  0  0  0  0  0  0  0  0  0
  -46.0680   27.9950    1.8110 C   0  0  0  0  0  0  0  0  0  0  0  0
  -41.0620   32.9000    2.6670 C   0  0  0  0  0  0  0  0  0  0  0  0
  -46.0200   28.7670    2.9780 C   0  0  0  0  0  0  0  0  0  0  0  0
  -41.0290   31.6710    3.3570 C   0  0  0  0  0  0  0  0  0  0  0  0
  -43.3270   30.3700   -2.4930 O   0  0  0  0  0  0  0  0  0  0  0  0
  -43.0980   29.4290   -2.5570 H   0  0  0  0  0  0  0  0  0  0  0  0
  -44.9920   30.6110    4.1600 O   0  0  0  0  0  0  0  0  0  0  0  0
  -45.9470   31.6690    4.1030 C   0  0  0  0  0  1  0  0  0  0  0  0
  -46.9150   26.9730    1.5360 O   0  0  0  0  0  0  0  0  0  0  0  0
  -46.4060   25.6480    1.6140 C   0  0  0  0  0  1  0  0  0  0  0  0
  -42.1220   29.5710    3.8330 O   0  0  0  0  0  0  0  0  0  0  0  0
  -41.3440   28.5150    3.2720 C   0  0  0  0  0  1  0  0  0  0  0  0
  -40.0450   33.7360    2.9950 O   0  0  0  0  0  0  0  0  0  0  0  0
  -38.9820   33.8460    2.0550 C   0  0  0  0  0  1  0  0  0  0  0  0
  -46.8800   28.4990    4.0150 O   0  0  0  0  0  0  0  0  0  0  0  0
  -46.3410   27.5310    4.9190 C   0  0  0  0  0  1  0  0  0  0  0  0
  -39.9560   31.3780    4.1580 O   0  0  0  0  0  0  0  0  0  0  0  0
  -40.2630   31.5490    5.5420 C   0  0  0  0  0  1  0  0  0  0  0  0
  1  7  1  6  0  0  0
  1  2  1  0  0  0  0
  1  3  1  0  0  0  0
  2  8  1  6  0  0  0
  2  4  1  0  0  0  0
  3  5  1  0  0  0  0
  4  6  1  0  0  0  0
  5  9  1  0  0  0  0
  6 12  2  0  0  0  0
  6 10  1  0  0  0  0
  9 10  1  0  0  0  0
  9 13  2  0  0  0  0
 10 14  2  0  0  0  0
 11  5  2  0  0  0  0
 11 15  1  0  0  0  0
 12 16  1  0  0  0  0
 13 21  1  0  0  0  0
 14 18  1  0  0  0  0
 14 25  1  0  0  0  0
 15 17  2  0  0  0  0
 16 27  1  0  0  0  0
 16 18  2  0  0  0  0
 17 13  1  0  0  0  0
 17 29  1  0  0  0  0
 18 31  1  0  0  0  0
 19  1  1  0  0  0  0
 20 19  1  0  0  0  0
 22 21  1  0  0  0  0
 23 24  1  0  0  0  0
 23 15  1  0  0  0  0
 26 25  1  0  0  0  0
 28 27  1  0  0  0  0
 29 30  1  0  0  0  0
 31 32  1  0  0  0  0
M  END
>  <MODEL>
2

>  <REMARK>
 VINA RESULT:    -6.348      2.046      6.475
 INTER + INTRA:          -8.730
 INTER:                  -8.328
 INTRA:                  -0.402
 UNBOUND:                 0.030
  7 active torsions:
  status: ('A' for Active; 'I' for Inactive)
    1  A    between atoms: O1_1  and  C1_8 
    2  A    between atoms: O2_2  and  C13_20 
    3  A    between atoms: O3_3  and  C14_21 
    4  A    between atoms: O4_4  and  C15_22 
    5  A    between atoms: O5_5  and  C16_23 
    6  A    between atoms: O6_6  and  C17_24 
    7  A    between atoms: O7_7  and  C18_25 

>  <TORSDO>
F 7

$$$$
./Esquisandrina.pdbqt
 OpenBabel10282519553D

 32 34  0  0  1  0  0  0  0  0999 V2000
  -32.0660   20.7440  -14.9620 C   0  0  1  0  0  0  0  0  0  0  0  0
  -32.5300   21.8660  -13.9910 C   0  0  2  0  0  3  0  0  0  0  0  0
  -33.2440   20.0700  -15.7130 C   0  0  0  0  0  2  0  0  0  0  0  0
  -33.2520   23.0170  -14.7210 C   0  0  0  0  0  2  0  0  0  0  0  0
  -33.5780   20.7470  -17.0030 C   0  0  0  0  0  0  0  0  0  0  0  0
  -34.7280   22.7580  -14.7580 C   0  0  0  0  0  0  0  0  0  0  0  0
  -30.9350   21.1680  -15.8990 C   0  0  0  0  0  1  0  0  0  0  0  0
  -31.3540   22.4270  -13.1850 C   0  0  0  0  0  1  0  0  0  0  0  0
  -34.5320   21.7740  -17.0460 C   0  0  0  0  0  0  0  0  0  0  0  0
  -35.3100   22.1380  -15.8650 C   0  0  0  0  0  0  0  0  0  0  0  0
  -32.9410   20.3400  -18.1720 C   0  0  0  0  0  3  0  0  0  0  0  0
  -35.5060   23.1150  -13.6510 C   0  0  0  0  0  3  0  0  0  0  0  0
  -34.7570   22.4460  -18.2540 C   0  0  0  0  0  0  0  0  0  0  0  0
  -36.6840   21.8440  -15.8370 C   0  0  0  0  0  0  0  0  0  0  0  0
  -33.1940   20.9990  -19.3840 C   0  0  0  0  0  0  0  0  0  0  0  0
  -36.8720   22.8490  -13.6480 C   0  0  0  0  0  0  0  0  0  0  0  0
  -34.0750   22.0860  -19.4230 C   0  0  0  0  0  0  0  0  0  0  0  0
  -37.4730   22.1920  -14.7410 C   0  0  0  0  0  0  0  0  0  0  0  0
  -31.6030   19.6650  -14.1530 O   0  0  0  0  0  0  0  0  0  0  0  0
  -31.5230   18.8420  -14.6620 H   0  0  0  0  0  0  0  0  0  0  0  0
  -35.5550   23.5550  -18.1950 O   0  0  0  0  0  0  0  0  0  0  0  0
  -34.8490   24.7900  -18.2920 C   0  0  0  0  0  1  0  0  0  0  0  0
  -32.4820   20.4800  -20.4140 O   0  0  0  0  0  0  0  0  0  0  0  0
  -31.8410   19.2260  -20.2150 C   0  0  0  0  0  1  0  0  0  0  0  0
  -37.2210   21.2880  -16.9650 O   0  0  0  0  0  0  0  0  0  0  0  0
  -37.4150   19.8780  -16.8720 C   0  0  0  0  0  1  0  0  0  0  0  0
  -37.7440   23.1690  -12.6580 O   0  0  0  0  0  0  0  0  0  0  0  0
  -37.1780   23.5910  -11.4230 C   0  0  0  0  0  1  0  0  0  0  0  0
  -34.3150   22.7340  -20.6110 O   0  0  0  0  0  0  0  0  0  0  0  0
  -35.4120   22.1560  -21.3220 C   0  0  0  0  0  1  0  0  0  0  0  0
  -38.7920   21.8270  -14.6620 O   0  0  0  0  0  0  0  0  0  0  0  0
  -39.6450   22.7690  -15.3130 C   0  0  0  0  0  1  0  0  0  0  0  0
  1  7  1  6  0  0  0
  1 19  1  0  0  0  0
  1  2  1  0  0  0  0
  2  8  1  6  0  0  0
  3  1  1  0  0  0  0
  4  2  1  0  0  0  0
  5  3  1  0  0  0  0
  6  4  1  0  0  0  0
  6 12  1  0  0  0  0
  9  5  1  0  0  0  0
  9 10  1  0  0  0  0
 10 14  1  0  0  0  0
 10  6  2  0  0  0  0
 11  5  2  0  0  0  0
 12 16  2  0  0  0  0
 13 21  1  0  0  0  0
 13  9  2  0  0  0  0
 14 18  2  0  0  0  0
 15 11  1  0  0  0  0
 16 27  1  0  0  0  0
 17 15  2  0  0  0  0
 17 13  1  0  0  0  0
 18 31  1  0  0  0  0
 18 16  1  0  0  0  0
 20 19  1  0  0  0  0
 22 21  1  0  0  0  0
 23 24  1  0  0  0  0
 23 15  1  0  0  0  0
 25 26  1  0  0  0  0
 25 14  1  0  0  0  0
 27 28  1  0  0  0  0
 29 17  1  0  0  0  0
 30 29  1  0  0  0  0
 32 31  1  0  0  0  0
M  END
>  <MODEL>
3

>  <REMARK>
 VINA RESULT:    -6.332     19.274     23.020
 INTER + INTRA:          -8.707
 INTER:                  -8.370
 INTRA:                  -0.338
 UNBOUND:                 0.030
  7 active torsions:
  status: ('A' for Active; 'I' for Inactive)
    1  A    between atoms: O1_1  and  C1_8 
    2  A    between atoms: O2_2  and  C13_20 
    3  A    between atoms: O3_3  and  C14_21 
    4  A    between atoms: O4_4  and  C15_22 
    5  A    between atoms: O5_5  and  C16_23 
    6  A    between atoms: O6_6  and  C17_24 
    7  A    between atoms: O7_7  and  C18_25 

>  <TORSDO>
F 7

$$$$
./Esquisandrina.pdbqt
 OpenBabel10282519553D

 32 34  0  0  1  0  0  0  0  0999 V2000
   -3.1580   34.6650    6.2340 C   0  0  1  0  0  0  0  0  0  0  0  0
   -3.9140   33.7250    7.2160 C   0  0  2  0  0  3  0  0  0  0  0  0
   -3.7160   36.1120    6.2350 C   0  0  0  0  0  2  0  0  0  0  0  0
   -3.8090   34.1960    8.6820 C   0  0  0  0  0  2  0  0  0  0  0  0
   -3.0510   36.9930    7.2430 C   0  0  0  0  0  0  0  0  0  0  0  0
   -4.9610   35.0930    9.0180 C   0  0  0  0  0  0  0  0  0  0  0  0
   -1.6380   34.6170    6.3820 C   0  0  0  0  0  1  0  0  0  0  0  0
   -3.4130   32.2820    7.1030 C   0  0  0  0  0  1  0  0  0  0  0  0
   -3.5710   37.1130    8.5400 C   0  0  0  0  0  0  0  0  0  0  0  0
   -4.8320   36.4800    8.9150 C   0  0  0  0  0  0  0  0  0  0  0  0
   -1.9130   37.7080    6.8810 C   0  0  0  0  0  3  0  0  0  0  0  0
   -6.1770   34.5180    9.4020 C   0  0  0  0  0  3  0  0  0  0  0  0
   -2.8750   37.8770    9.4860 C   0  0  0  0  0  0  0  0  0  0  0  0
   -5.9530   37.2890    9.1680 C   0  0  0  0  0  0  0  0  0  0  0  0
   -1.2390   38.4950    7.8260 C   0  0  0  0  0  0  0  0  0  0  0  0
   -7.2720   35.3310    9.6820 C   0  0  0  0  0  0  0  0  0  0  0  0
   -1.6940   38.5500    9.1490 C   0  0  0  0  0  0  0  0  0  0  0  0
   -7.1720   36.7310    9.5510 C   0  0  0  0  0  0  0  0  0  0  0  0
   -3.4990   34.2410    4.9150 O   0  0  0  0  0  0  0  0  0  0  0  0
   -4.2900   33.6780    4.9120 H   0  0  0  0  0  0  0  0  0  0  0  0
   -3.3230   37.8070   10.7750 O   0  0  0  0  0  0  0  0  0  0  0  0
   -2.6530   36.8360   11.5770 C   0  0  0  0  0  1  0  0  0  0  0  0
   -0.1490   39.1110    7.3050 O   0  0  0  0  0  0  0  0  0  0  0  0
   -0.3620   40.1880    6.4010 C   0  0  0  0  0  1  0  0  0  0  0  0
   -5.7640   38.6420    9.1100 O   0  0  0  0  0  0  0  0  0  0  0  0
   -6.1630   39.2240    7.8700 C   0  0  0  0  0  1  0  0  0  0  0  0
   -8.4940   34.9080   10.0950 O   0  0  0  0  0  0  0  0  0  0  0  0
   -8.5920   34.4640   11.4420 C   0  0  0  0  0  1  0  0  0  0  0  0
   -1.0260   39.3170   10.0730 O   0  0  0  0  0  0  0  0  0  0  0  0
   -1.5090   40.6620   10.1010 C   0  0  0  0  0  1  0  0  0  0  0  0
   -8.2940   37.5020    9.7080 O   0  0  0  0  0  0  0  0  0  0  0  0
   -8.3330   38.1320   10.9890 C   0  0  0  0  0  1  0  0  0  0  0  0
  1  3  1  0  0  0  0
  1  7  1  1  0  0  0
  1  2  1  0  0  0  0
  2  8  1  1  0  0  0
  2  4  1  0  0  0  0
  3  5  1  0  0  0  0
  4  6  1  0  0  0  0
  5  9  1  0  0  0  0
  6 12  1  0  0  0  0
  9 10  1  0  0  0  0
  9 13  2  0  0  0  0
 10  6  2  0  0  0  0
 10 14  1  0  0  0  0
 11  5  2  0  0  0  0
 11 15  1  0  0  0  0
 12 16  2  0  0  0  0
 13 21  1  0  0  0  0
 14 18  2  0  0  0  0
 15 17  2  0  0  0  0
 16 27  1  0  0  0  0
 17 13  1  0  0  0  0
 17 29  1  0  0  0  0
 18 16  1  0  0  0  0
 18 31  1  0  0  0  0
 19  1  1  0  0  0  0
 20 19  1  0  0  0  0
 21 22  1  0  0  0  0
 23 15  1  0  0  0  0
 24 23  1  0  0  0  0
 25 14  1  0  0  0  0
 26 25  1  0  0  0  0
 27 28  1  0  0  0  0
 29 30  1  0  0  0  0
 31 32  1  0  0  0  0
M  END
>  <MODEL>
4

>  <REMARK>
 VINA RESULT:    -6.050     36.016     40.148
 INTER + INTRA:          -8.318
 INTER:                  -7.867
 INTRA:                  -0.452
 UNBOUND:                 0.030
  7 active torsions:
  status: ('A' for Active; 'I' for Inactive)
    1  A    between atoms: O1_1  and  C1_8 
    2  A    between atoms: O2_2  and  C13_20 
    3  A    between atoms: O3_3  and  C14_21 
    4  A    between atoms: O4_4  and  C15_22 
    5  A    between atoms: O5_5  and  C16_23 
    6  A    between atoms: O6_6  and  C17_24 
    7  A    between atoms: O7_7  and  C18_25 

>  <TORSDO>
F 7

$$$$
./Esquisandrina.pdbqt
 OpenBabel10282519553D

 32 34  0  0  1  0  0  0  0  0999 V2000
  -43.2640   33.0400    2.6210 C   0  0  1  0  0  0  0  0  0  0  0  0
  -42.2930   32.5920    1.4930 C   0  0  2  0  0  3  0  0  0  0  0  0
  -44.6360   32.3180    2.5580 C   0  0  0  0  0  2  0  0  0  0  0  0
  -41.9590   31.0870    1.5640 C   0  0  0  0  0  2  0  0  0  0  0  0
  -44.6620   31.0450    3.3410 C   0  0  0  0  0  0  0  0  0  0  0  0
  -42.9250   30.3060    0.7260 C   0  0  0  0  0  0  0  0  0  0  0  0
  -42.6440   33.0080    4.0180 C   0  0  0  0  0  1  0  0  0  0  0  0
  -40.9950   33.4070    1.5180 C   0  0  0  0  0  1  0  0  0  0  0  0
  -44.3310   29.8260    2.7340 C   0  0  0  0  0  0  0  0  0  0  0  0
  -44.0630   29.7380    1.3010 C   0  0  0  0  0  0  0  0  0  0  0  0
  -45.0330   31.0770    4.6830 C   0  0  0  0  0  3  0  0  0  0  0  0
  -42.6850   30.1840   -0.6470 C   0  0  0  0  0  3  0  0  0  0  0  0
  -44.2810   28.6650    3.5170 C   0  0  0  0  0  0  0  0  0  0  0  0
  -44.9850   29.0740    0.4740 C   0  0  0  0  0  0  0  0  0  0  0  0
  -45.0090   29.9050    5.4530 C   0  0  0  0  0  0  0  0  0  0  0  0
  -43.5880   29.4950   -1.4510 C   0  0  0  0  0  0  0  0  0  0  0  0
  -44.5910   28.6960    4.8830 C   0  0  0  0  0  0  0  0  0  0  0  0
  -44.7610   28.9450   -0.8960 C   0  0  0  0  0  0  0  0  0  0  0  0
  -43.6460   34.3820    2.3260 O   0  0  0  0  0  0  0  0  0  0  0  0
  -44.6020   34.5150    2.4330 H   0  0  0  0  0  0  0  0  0  0  0  0
  -43.7740   27.5460    2.9170 O   0  0  0  0  0  0  0  0  0  0  0  0
  -42.3540   27.4310    2.9960 C   0  0  0  0  0  1  0  0  0  0  0  0
  -45.3880   30.1200    6.7360 O   0  0  0  0  0  0  0  0  0  0  0  0
  -45.6140   31.4630    7.1470 C   0  0  0  0  0  1  0  0  0  0  0  0
  -46.0560   28.4850    1.0900 O   0  0  0  0  0  0  0  0  0  0  0  0
  -47.2640   29.2340    0.9750 C   0  0  0  0  0  1  0  0  0  0  0  0
  -43.4620   29.2760   -2.7850 O   0  0  0  0  0  0  0  0  0  0  0  0
  -43.5500   30.4180   -3.6280 C   0  0  0  0  0  1  0  0  0  0  0  0
  -44.5620   27.5520    5.6420 O   0  0  0  0  0  0  0  0  0  0  0  0
  -43.3400   27.4280    6.3750 C   0  0  0  0  0  1  0  0  0  0  0  0
  -45.6970   28.3830   -1.7250 O   0  0  0  0  0  0  0  0  0  0  0  0
  -45.5260   26.9690   -1.8410 C   0  0  0  0  0  1  0  0  0  0  0  0
  1  7  1  1  0  0  0
  2  8  1  1  0  0  0
  2  4  1  0  0  0  0
  2  1  1  0  0  0  0
  3  1  1  0  0  0  0
  3  5  1  0  0  0  0
  5 11  1  0  0  0  0
  6 10  1  0  0  0  0
  6  4  1  0  0  0  0
  9  5  2  0  0  0  0
  9 13  1  0  0  0  0
 10  9  1  0  0  0  0
 11 15  2  0  0  0  0
 12  6  2  0  0  0  0
 13 17  2  0  0  0  0
 14 25  1  0  0  0  0
 14 10  2  0  0  0  0
 15 23  1  0  0  0  0
 16 18  2  0  0  0  0
 16 12  1  0  0  0  0
 17 15  1  0  0  0  0
 17 29  1  0  0  0  0
 18 14  1  0  0  0  0
 19 20  1  0  0  0  0
 19  1  1  0  0  0  0
 21 22  1  0  0  0  0
 21 13  1  0  0  0  0
 23 24  1  0  0  0  0
 26 25  1  0  0  0  0
 27 16  1  0  0  0  0
 28 27  1  0  0  0  0
 29 30  1  0  0  0  0
 31 18  1  0  0  0  0
 32 31  1  0  0  0  0
M  END
>  <MODEL>
5

>  <REMARK>
 VINA RESULT:    -5.960      2.286      4.946
 INTER + INTRA:          -8.195
 INTER:                  -7.903
 INTRA:                  -0.291
 UNBOUND:                 0.030
  7 active torsions:
  status: ('A' for Active; 'I' for Inactive)
    1  A    between atoms: O1_1  and  C1_8 
    2  A    between atoms: O2_2  and  C13_20 
    3  A    between atoms: O3_3  and  C14_21 
    4  A    between atoms: O4_4  and  C15_22 
    5  A    between atoms: O5_5  and  C16_23 
    6  A    between atoms: O6_6  and  C17_24 
    7  A    between atoms: O7_7  and  C18_25 

>  <TORSDO>
F 7

$$$$
./Esquisandrina.pdbqt
 OpenBabel10282519553D

 32 34  0  0  1  0  0  0  0  0999 V2000
  -44.9380   27.5840    0.2980 C   0  0  1  0  0  0  0  0  0  0  0  0
  -45.6680   28.8250    0.8820 C   0  0  2  0  0  3  0  0  0  0  0  0
  -43.4010   27.6380    0.4990 C   0  0  0  0  0  2  0  0  0  0  0  0
  -45.4670   28.9670    2.4050 C   0  0  0  0  0  2  0  0  0  0  0  0
  -42.9580   27.0190    1.7860 C   0  0  0  0  0  0  0  0  0  0  0  0
  -44.2710   29.8240    2.6890 C   0  0  0  0  0  0  0  0  0  0  0  0
  -45.5440   26.2500    0.7340 C   0  0  0  0  0  1  0  0  0  0  0  0
  -47.1670   28.7920    0.5630 C   0  0  0  0  0  1  0  0  0  0  0  0
  -42.8360   27.7960    2.9470 C   0  0  0  0  0  0  0  0  0  0  0  0
  -43.0220   29.2440    2.9160 C   0  0  0  0  0  0  0  0  0  0  0  0
  -42.6550   25.6610    1.8220 C   0  0  0  0  0  3  0  0  0  0  0  0
  -44.4200   31.2150    2.6880 C   0  0  0  0  0  3  0  0  0  0  0  0
  -42.5040   27.1700    4.1550 C   0  0  0  0  0  0  0  0  0  0  0  0
  -41.9070   30.0790    3.1070 C   0  0  0  0  0  0  0  0  0  0  0  0
  -42.2940   25.0470    3.0300 C   0  0  0  0  0  0  0  0  0  0  0  0
  -43.3160   32.0320    2.9120 C   0  0  0  0  0  0  0  0  0  0  0  0
  -42.2570   25.7920    4.2150 C   0  0  0  0  0  0  0  0  0  0  0  0
  -42.0390   31.4670    3.1080 C   0  0  0  0  0  0  0  0  0  0  0  0
  -45.0320   27.6810   -1.1220 O   0  0  0  0  0  0  0  0  0  0  0  0
  -45.6170   27.0010   -1.4910 H   0  0  0  0  0  0  0  0  0  0  0  0
  -42.5810   27.9390    5.2820 O   0  0  0  0  0  0  0  0  0  0  0  0
  -43.8160   27.8230    5.9870 C   0  0  0  0  0  1  0  0  0  0  0  0
  -42.0440   23.7230    2.8830 O   0  0  0  0  0  0  0  0  0  0  0  0
  -43.1340   22.8720    2.5510 C   0  0  0  0  0  1  0  0  0  0  0  0
  -40.7160   29.4660    3.3820 O   0  0  0  0  0  0  0  0  0  0  0  0
  -40.1020   29.9230    4.5860 C   0  0  0  0  0  1  0  0  0  0  0  0
  -43.3260   33.3880    2.9700 O   0  0  0  0  0  0  0  0  0  0  0  0
  -43.9900   34.0650    1.9090 C   0  0  0  0  0  1  0  0  0  0  0  0
  -41.9110   25.1850    5.3980 O   0  0  0  0  0  0  0  0  0  0  0  0
  -40.4930   25.1340    5.5770 C   0  0  0  0  0  1  0  0  0  0  0  0
  -40.9480   32.2900    3.1990 O   0  0  0  0  0  0  0  0  0  0  0  0
  -40.3190   32.4840    1.9320 C   0  0  0  0  0  1  0  0  0  0  0  0
  1  3  1  0  0  0  0
  1  7  1  1  0  0  0
  1  2  1  0  0  0  0
  2  8  1  1  0  0  0
  2  4  1  0  0  0  0
  3  5  1  0  0  0  0
  4  6  1  0  0  0  0
  5 11  2  0  0  0  0
  5  9  1  0  0  0  0
  6 10  1  0  0  0  0
  9 13  2  0  0  0  0
 10  9  1  0  0  0  0
 10 14  2  0  0  0  0
 11 15  1  0  0  0  0
 12  6  2  0  0  0  0
 12 16  1  0  0  0  0
 13 17  1  0  0  0  0
 13 21  1  0  0  0  0
 14 18  1  0  0  0  0
 14 25  1  0  0  0  0
 15 17  2  0  0  0  0
 16 27  1  0  0  0  0
 16 18  2  0  0  0  0
 17 29  1  0  0  0  0
 18 31  1  0  0  0  0
 19  1  1  0  0  0  0
 20 19  1  0  0  0  0
 21 22  1  0  0  0  0
 23 15  1  0  0  0  0
 24 23  1  0  0  0  0
 25 26  1  0  0  0  0
 28 27  1  0  0  0  0
 29 30  1  0  0  0  0
 32 31  1  0  0  0  0
M  END
>  <MODEL>
6

>  <REMARK>
 VINA RESULT:    -5.957      1.994      5.610
 INTER + INTRA:          -8.190
 INTER:                  -8.080
 INTRA:                  -0.110
 UNBOUND:                 0.030
  7 active torsions:
  status: ('A' for Active; 'I' for Inactive)
    1  A    between atoms: O1_1  and  C1_8 
    2  A    between atoms: O2_2  and  C13_20 
    3  A    between atoms: O3_3  and  C14_21 
    4  A    between atoms: O4_4  and  C15_22 
    5  A    between atoms: O5_5  and  C16_23 
    6  A    between atoms: O6_6  and  C17_24 
    7  A    between atoms: O7_7  and  C18_25 

>  <TORSDO>
F 7

$$$$
./Esquisandrina.pdbqt
 OpenBabel10282519553D

 32 34  0  0  1  0  0  0  0  0999 V2000
  -41.7810   26.9670    4.3410 C   0  0  1  0  0  0  0  0  0  0  0  0
  -42.9930   26.0380    4.0500 C   0  0  2  0  0  3  0  0  0  0  0  0
  -41.3880   27.8440    3.1230 C   0  0  0  0  0  2  0  0  0  0  0  0
  -44.2710   26.8270    3.6940 C   0  0  0  0  0  2  0  0  0  0  0  0
  -42.1060   29.1550    3.0910 C   0  0  0  0  0  0  0  0  0  0  0  0
  -44.3590   27.0200    2.2110 C   0  0  0  0  0  0  0  0  0  0  0  0
  -41.9190   27.7760    5.6300 C   0  0  0  0  0  1  0  0  0  0  0  0
  -43.2780   25.1070    5.2340 C   0  0  0  0  0  1  0  0  0  0  0  0
  -43.3250   29.2860    2.4110 C   0  0  0  0  0  0  0  0  0  0  0  0
  -43.8750   28.1890    1.6190 C   0  0  0  0  0  0  0  0  0  0  0  0
  -41.5460   30.2550    3.7350 C   0  0  0  0  0  3  0  0  0  0  0  0
  -44.9010   25.9970    1.4260 C   0  0  0  0  0  3  0  0  0  0  0  0
  -44.0140   30.5030    2.4740 C   0  0  0  0  0  0  0  0  0  0  0  0
  -43.9080   28.3080    0.2190 C   0  0  0  0  0  0  0  0  0  0  0  0
  -42.2290   31.4790    3.7690 C   0  0  0  0  0  0  0  0  0  0  0  0
  -44.9590   26.1400    0.0420 C   0  0  0  0  0  0  0  0  0  0  0  0
  -43.4900   31.5990    3.1720 C   0  0  0  0  0  0  0  0  0  0  0  0
  -44.4440   27.2970   -0.5770 C   0  0  0  0  0  0  0  0  0  0  0  0
  -40.6360   26.1250    4.4530 O   0  0  0  0  0  0  0  0  0  0  0  0
  -40.5740   25.7170    5.3320 H   0  0  0  0  0  0  0  0  0  0  0  0
  -45.2780   30.5170    1.9530 O   0  0  0  0  0  0  0  0  0  0  0  0
  -46.3070   30.2480    2.9040 C   0  0  0  0  0  1  0  0  0  0  0  0
  -41.5450   32.4350    4.4440 O   0  0  0  0  0  0  0  0  0  0  0  0
  -40.5360   33.1530    3.7440 C   0  0  0  0  0  1  0  0  0  0  0  0
  -43.4760   29.4920   -0.3110 O   0  0  0  0  0  0  0  0  0  0  0  0
  -44.4520   30.1480   -1.1180 C   0  0  0  0  0  1  0  0  0  0  0  0
  -45.4860   25.2430   -0.8300 O   0  0  0  0  0  0  0  0  0  0  0  0
  -44.8260   23.9880   -0.9290 C   0  0  0  0  0  1  0  0  0  0  0  0
  -44.1590   32.7990    3.2140 O   0  0  0  0  0  0  0  0  0  0  0  0
  -43.8620   33.6150    2.0790 C   0  0  0  0  0  1  0  0  0  0  0  0
  -44.3950   27.3600   -1.9450 O   0  0  0  0  0  0  0  0  0  0  0  0
  -43.1300   26.9350   -2.4530 C   0  0  0  0  0  1  0  0  0  0  0  0
  1 19  1  0  0  0  0
  1  7  1  1  0  0  0
  2  1  1  0  0  0  0
  2  8  1  1  0  0  0
  3  1  1  0  0  0  0
  4  2  1  0  0  0  0
  5  3  1  0  0  0  0
  5 11  1  0  0  0  0
  6  4  1  0  0  0  0
  9 13  1  0  0  0  0
  9  5  2  0  0  0  0
 10  6  1  0  0  0  0
 10  9  1  0  0  0  0
 11 15  2  0  0  0  0
 12  6  2  0  0  0  0
 13 17  2  0  0  0  0
 14 10  2  0  0  0  0
 15 23  1  0  0  0  0
 16 12  1  0  0  0  0
 17 29  1  0  0  0  0
 17 15  1  0  0  0  0
 18 16  2  0  0  0  0
 18 14  1  0  0  0  0
 19 20  1  0  0  0  0
 21 13  1  0  0  0  0
 21 22  1  0  0  0  0
 24 23  1  0  0  0  0
 25 14  1  0  0  0  0
 26 25  1  0  0  0  0
 27 16  1  0  0  0  0
 28 27  1  0  0  0  0
 30 29  1  0  0  0  0
 31 18  1  0  0  0  0
 32 31  1  0  0  0  0
M  END
>  <MODEL>
7

>  <REMARK>
 VINA RESULT:    -5.942      1.941      2.548
 INTER + INTRA:          -8.169
 INTER:                  -8.018
 INTRA:                  -0.152
 UNBOUND:                 0.030
  7 active torsions:
  status: ('A' for Active; 'I' for Inactive)
    1  A    between atoms: O1_1  and  C1_8 
    2  A    between atoms: O2_2  and  C13_20 
    3  A    between atoms: O3_3  and  C14_21 
    4  A    between atoms: O4_4  and  C15_22 
    5  A    between atoms: O5_5  and  C16_23 
    6  A    between atoms: O6_6  and  C17_24 
    7  A    between atoms: O7_7  and  C18_25 

>  <TORSDO>
F 7

$$$$
./Esquisandrina.pdbqt
 OpenBabel10282519553D

 32 34  0  0  1  0  0  0  0  0999 V2000
  -34.8570   46.3560   -6.4090 C   0  0  1  0  0  0  0  0  0  0  0  0
  -33.3500   46.0470   -6.1860 C   0  0  2  0  0  3  0  0  0  0  0  0
  -35.6980   46.2210   -5.1130 C   0  0  0  0  0  2  0  0  0  0  0  0
  -32.6920   47.0120   -5.1780 C   0  0  0  0  0  2  0  0  0  0  0  0
  -35.7780   47.4940   -4.3330 C   0  0  0  0  0  0  0  0  0  0  0  0
  -32.7750   46.4450   -3.7930 C   0  0  0  0  0  0  0  0  0  0  0  0
  -35.1150   47.6690   -7.1460 C   0  0  0  0  0  1  0  0  0  0  0  0
  -32.5740   46.0770   -7.5070 C   0  0  0  0  0  1  0  0  0  0  0  0
  -34.8370   47.7800   -3.3350 C   0  0  0  0  0  0  0  0  0  0  0  0
  -33.8230   46.8040   -2.9430 C   0  0  0  0  0  0  0  0  0  0  0  0
  -36.8070   48.3940   -4.5980 C   0  0  0  0  0  3  0  0  0  0  0  0
  -31.8070   45.5240   -3.3800 C   0  0  0  0  0  3  0  0  0  0  0  0
  -34.8870   49.0200   -2.6840 C   0  0  0  0  0  0  0  0  0  0  0  0
  -33.9110   46.1990   -1.6780 C   0  0  0  0  0  0  0  0  0  0  0  0
  -36.8680   49.6200   -3.9210 C   0  0  0  0  0  0  0  0  0  0  0  0
  -31.8860   44.9560   -2.1120 C   0  0  0  0  0  0  0  0  0  0  0  0
  -35.8820   49.9590   -2.9870 C   0  0  0  0  0  0  0  0  0  0  0  0
  -32.9550   45.2790   -1.2510 C   0  0  0  0  0  0  0  0  0  0  0  0
  -35.3850   45.2860   -7.1910 O   0  0  0  0  0  0  0  0  0  0  0  0
  -36.0810   44.8030   -6.7160 H   0  0  0  0  0  0  0  0  0  0  0  0
  -33.8400   49.3180   -1.8580 O   0  0  0  0  0  0  0  0  0  0  0  0
  -32.8030   50.0770   -2.4770 C   0  0  0  0  0  1  0  0  0  0  0  0
  -37.9250   50.3740   -4.3100 O   0  0  0  0  0  0  0  0  0  0  0  0
  -39.2310   49.8570   -4.0840 C   0  0  0  0  0  1  0  0  0  0  0  0
  -34.9210   46.6240   -0.8590 O   0  0  0  0  0  0  0  0  0  0  0  0
  -36.0650   45.7720   -0.8710 C   0  0  0  0  0  1  0  0  0  0  0  0
  -31.0010   44.0790   -1.5750 O   0  0  0  0  0  0  0  0  0  0  0  0
  -29.6870   44.5680   -1.3330 C   0  0  0  0  0  1  0  0  0  0  0  0
  -35.9410   51.1650   -2.3310 O   0  0  0  0  0  0  0  0  0  0  0  0
  -36.7330   51.0880   -1.1440 C   0  0  0  0  0  1  0  0  0  0  0  0
  -33.0830   44.6130   -0.0600 O   0  0  0  0  0  0  0  0  0  0  0  0
  -32.5690   45.3750    1.0340 C   0  0  0  0  0  1  0  0  0  0  0  0
  1  7  1  6  0  0  0
  1  2  1  0  0  0  0
  1  3  1  0  0  0  0
  2  8  1  6  0  0  0
  2  4  1  0  0  0  0
  3  5  1  0  0  0  0
  4  6  1  0  0  0  0
  5  9  1  0  0  0  0
  6 12  2  0  0  0  0
  6 10  1  0  0  0  0
  9 10  1  0  0  0  0
  9 13  2  0  0  0  0
 10 14  2  0  0  0  0
 11  5  2  0  0  0  0
 11 15  1  0  0  0  0
 12 16  1  0  0  0  0
 13 21  1  0  0  0  0
 14 18  1  0  0  0  0
 14 25  1  0  0  0  0
 15 17  2  0  0  0  0
 16 27  1  0  0  0  0
 16 18  2  0  0  0  0
 17 13  1  0  0  0  0
 17 29  1  0  0  0  0
 18 31  1  0  0  0  0
 19 20  1  0  0  0  0
 19  1  1  0  0  0  0
 22 21  1  0  0  0  0
 23 24  1  0  0  0  0
 23 15  1  0  0  0  0
 26 25  1  0  0  0  0
 27 28  1  0  0  0  0
 29 30  1  0  0  0  0
 31 32  1  0  0  0  0
M  END
>  <MODEL>
8

>  <REMARK>
 VINA RESULT:    -5.901     18.077     21.080
 INTER + INTRA:          -8.112
 INTER:                  -7.647
 INTRA:                  -0.465
 UNBOUND:                 0.030
  7 active torsions:
  status: ('A' for Active; 'I' for Inactive)
    1  A    between atoms: O1_1  and  C1_8 
    2  A    between atoms: O2_2  and  C13_20 
    3  A    between atoms: O3_3  and  C14_21 
    4  A    between atoms: O4_4  and  C15_22 
    5  A    between atoms: O5_5  and  C16_23 
    6  A    between atoms: O6_6  and  C17_24 
    7  A    between atoms: O7_7  and  C18_25 

>  <TORSDO>
F 7

$$$$
./Esquisandrina.pdbqt
 OpenBabel10282519553D

 32 34  0  0  1  0  0  0  0  0999 V2000
  -23.8080   -4.0150   13.4300 C   0  0  1  0  0  0  0  0  0  0  0  0
  -24.2450   -2.5500   13.7120 C   0  0  2  0  0  3  0  0  0  0  0  0
  -22.4090   -4.1110   12.7670 C   0  0  0  0  0  2  0  0  0  0  0  0
  -23.2890   -1.8260   14.6830 C   0  0  0  0  0  2  0  0  0  0  0  0
  -21.2970   -4.2030   13.7620 C   0  0  0  0  0  0  0  0  0  0  0  0
  -22.2160   -1.1140   13.9160 C   0  0  0  0  0  0  0  0  0  0  0  0
  -23.9560   -4.9450   14.6330 C   0  0  0  0  0  1  0  0  0  0  0  0
  -25.6750   -2.4890   14.2580 C   0  0  0  0  0  1  0  0  0  0  0  0
  -20.6630   -3.0450   14.2330 C   0  0  0  0  0  0  0  0  0  0  0  0
  -20.9830   -1.7280   13.6890 C   0  0  0  0  0  0  0  0  0  0  0  0
  -20.8840   -5.4550   14.2100 C   0  0  0  0  0  3  0  0  0  0  0  0
  -22.4840    0.1580   13.4000 C   0  0  0  0  0  3  0  0  0  0  0  0
  -19.6850   -3.1600   15.2300 C   0  0  0  0  0  0  0  0  0  0  0  0
  -20.0250   -1.0630   12.9040 C   0  0  0  0  0  0  0  0  0  0  0  0
  -19.8830   -5.5630   15.1870 C   0  0  0  0  0  0  0  0  0  0  0  0
  -21.5150    0.8210   12.6520 C   0  0  0  0  0  0  0  0  0  0  0  0
  -19.3060   -4.4110   15.7340 C   0  0  0  0  0  0  0  0  0  0  0  0
  -20.2760    0.2050   12.3830 C   0  0  0  0  0  0  0  0  0  0  0  0
  -24.6430   -4.4970   12.3790 O   0  0  0  0  0  0  0  0  0  0  0  0
  -24.7570   -3.8350   11.6780 H   0  0  0  0  0  0  0  0  0  0  0  0
  -19.2360   -1.9930   15.7820 O   0  0  0  0  0  0  0  0  0  0  0  0
  -19.9560   -1.5790   16.9420 C   0  0  0  0  0  1  0  0  0  0  0  0
  -19.6150   -6.8510   15.5120 O   0  0  0  0  0  0  0  0  0  0  0  0
  -19.9890   -7.8640   14.5860 C   0  0  0  0  0  1  0  0  0  0  0  0
  -18.8120   -1.6770   12.7580 O   0  0  0  0  0  0  0  0  0  0  0  0
  -18.7540   -2.5710   11.6480 C   0  0  0  0  0  1  0  0  0  0  0  0
  -21.6310    2.0660   12.1230 O   0  0  0  0  0  0  0  0  0  0  0  0
  -21.6040    3.1520   13.0410 C   0  0  0  0  0  1  0  0  0  0  0  0
  -18.3300   -4.5210   16.6950 O   0  0  0  0  0  0  0  0  0  0  0  0
  -17.0220   -4.5970   16.1230 C   0  0  0  0  0  1  0  0  0  0  0  0
  -19.3890    0.8220   11.5390 O   0  0  0  0  0  0  0  0  0  0  0  0
  -19.6610    0.5230   10.1690 C   0  0  0  0  0  1  0  0  0  0  0  0
  1  2  1  0  0  0  0
  1  7  1  1  0  0  0
  2  8  1  1  0  0  0
  2  4  1  0  0  0  0
  3  1  1  0  0  0  0
  3  5  1  0  0  0  0
  5 11  2  0  0  0  0
  5  9  1  0  0  0  0
  6  4  1  0  0  0  0
  9 13  2  0  0  0  0
 10  6  1  0  0  0  0
 10  9  1  0  0  0  0
 11 15  1  0  0  0  0
 12  6  2  0  0  0  0
 13 17  1  0  0  0  0
 13 21  1  0  0  0  0
 14 10  2  0  0  0  0
 15 23  1  0  0  0  0
 15 17  2  0  0  0  0
 16 12  1  0  0  0  0
 17 29  1  0  0  0  0
 18 16  2  0  0  0  0
 18 14  1  0  0  0  0
 19  1  1  0  0  0  0
 20 19  1  0  0  0  0
 21 22  1  0  0  0  0
 24 23  1  0  0  0  0
 25 14  1  0  0  0  0
 26 25  1  0  0  0  0
 27 16  1  0  0  0  0
 27 28  1  0  0  0  0
 30 29  1  0  0  0  0
 31 18  1  0  0  0  0
 32 31  1  0  0  0  0
M  END
>  <MODEL>
9

>  <REMARK>
 VINA RESULT:    -5.899     37.396     41.139
 INTER + INTRA:          -8.110
 INTER:                  -7.805
 INTRA:                  -0.305
 UNBOUND:                 0.030
  7 active torsions:
  status: ('A' for Active; 'I' for Inactive)
    1  A    between atoms: O1_1  and  C1_8 
    2  A    between atoms: O2_2  and  C13_20 
    3  A    between atoms: O3_3  and  C14_21 
    4  A    between atoms: O4_4  and  C15_22 
    5  A    between atoms: O5_5  and  C16_23 
    6  A    between atoms: O6_6  and  C17_24 
    7  A    between atoms: O7_7  and  C18_25 

>  <TORSDO>
F 7

$$$$
./Esquisandrina.pdbqt
 OpenBabel10282519553D

 32 34  0  0  1  0  0  0  0  0999 V2000
  -41.7990   32.2420    3.0610 C   0  0  1  0  0  0  0  0  0  0  0  0
  -42.3670   31.9240    4.4730 C   0  0  2  0  0  3  0  0  0  0  0  0
  -41.5800   30.9710    2.1990 C   0  0  0  0  0  2  0  0  0  0  0  0
  -43.7470   31.2360    4.4130 C   0  0  0  0  0  2  0  0  0  0  0  0
  -42.7820   30.5990    1.3910 C   0  0  0  0  0  0  0  0  0  0  0  0
  -43.5790   29.7460    4.3990 C   0  0  0  0  0  0  0  0  0  0  0  0
  -42.5680   33.3340    2.3190 C   0  0  0  0  0  1  0  0  0  0  0  0
  -42.4600   33.1880    5.3340 C   0  0  0  0  0  1  0  0  0  0  0  0
  -43.7440   29.7190    1.9060 C   0  0  0  0  0  0  0  0  0  0  0  0
  -43.5520   29.0490    3.1890 C   0  0  0  0  0  0  0  0  0  0  0  0
  -42.9340   31.1260    0.1120 C   0  0  0  0  0  3  0  0  0  0  0  0
  -43.4150   29.0720    5.6130 C   0  0  0  0  0  3  0  0  0  0  0  0
  -44.9010   29.4600    1.1600 C   0  0  0  0  0  0  0  0  0  0  0  0
  -43.3210   27.6630    3.2070 C   0  0  0  0  0  0  0  0  0  0  0  0
  -44.0820   30.8390   -0.6410 C   0  0  0  0  0  0  0  0  0  0  0  0
  -43.2200   27.6940    5.6210 C   0  0  0  0  0  0  0  0  0  0  0  0
  -45.0940   30.0350   -0.1030 C   0  0  0  0  0  0  0  0  0  0  0  0
  -43.1550   26.9760    4.4090 C   0  0  0  0  0  0  0  0  0  0  0  0
  -40.4550   32.6810    3.2480 O   0  0  0  0  0  0  0  0  0  0  0  0
  -39.8150   31.9900    3.0120 H   0  0  0  0  0  0  0  0  0  0  0  0
  -45.8850   28.7480    1.7870 O   0  0  0  0  0  0  0  0  0  0  0  0
  -46.8760   29.5520    2.4230 C   0  0  0  0  0  1  0  0  0  0  0  0
  -44.0690   31.4420   -1.8560 O   0  0  0  0  0  0  0  0  0  0  0  0
  -44.0930   32.8630   -1.8930 C   0  0  0  0  0  1  0  0  0  0  0  0
  -43.3600   27.0140    2.0040 O   0  0  0  0  0  0  0  0  0  0  0  0
  -44.3080   25.9490    1.9590 C   0  0  0  0  0  1  0  0  0  0  0  0
  -43.0800   26.9150    6.7240 O   0  0  0  0  0  0  0  0  0  0  0  0
  -44.2590   26.6650    7.4800 C   0  0  0  0  0  1  0  0  0  0  0  0
  -46.2200   29.7620   -0.8410 O   0  0  0  0  0  0  0  0  0  0  0  0
  -46.0420   28.6200   -1.6840 C   0  0  0  0  0  1  0  0  0  0  0  0
  -42.8360   25.6430    4.4350 O   0  0  0  0  0  0  0  0  0  0  0  0
  -41.4270   25.4310    4.3310 C   0  0  0  0  0  1  0  0  0  0  0  0
  1  7  1  6  0  0  0
  1 19  1  0  0  0  0
  1  2  1  0  0  0  0
  2  8  1  1  0  0  0
  3  1  1  0  0  0  0
  4  2  1  0  0  0  0
  5  9  1  0  0  0  0
  5  3  1  0  0  0  0
  6  4  1  0  0  0  0
  6 12  1  0  0  0  0
  9 10  1  0  0  0  0
 10 14  1  0  0  0  0
 10  6  2  0  0  0  0
 11  5  2  0  0  0  0
 12 16  2  0  0  0  0
 13 21  1  0  0  0  0
 13  9  2  0  0  0  0
 14 18  2  0  0  0  0
 15 17  2  0  0  0  0
 15 11  1  0  0  0  0
 16 27  1  0  0  0  0
 17 13  1  0  0  0  0
 18 31  1  0  0  0  0
 18 16  1  0  0  0  0
 20 19  1  0  0  0  0
 21 22  1  0  0  0  0
 23 15  1  0  0  0  0
 24 23  1  0  0  0  0
 25 14  1  0  0  0  0
 26 25  1  0  0  0  0
 27 28  1  0  0  0  0
 29 17  1  0  0  0  0
 30 29  1  0  0  0  0
 32 31  1  0  0  0  0
M  END
>  <MODEL>
10

>  <REMARK>
 VINA RESULT:    -5.886      1.848      6.166
 INTER + INTRA:          -8.093
 INTER:                  -7.999
 INTRA:                  -0.093
 UNBOUND:                 0.030
  7 active torsions:
  status: ('A' for Active; 'I' for Inactive)
    1  A    between atoms: O1_1  and  C1_8 
    2  A    between atoms: O2_2  and  C13_20 
    3  A    between atoms: O3_3  and  C14_21 
    4  A    between atoms: O4_4  and  C15_22 
    5  A    between atoms: O5_5  and  C16_23 
    6  A    between atoms: O6_6  and  C17_24 
    7  A    between atoms: O7_7  and  C18_25 

>  <TORSDO>
F 7

$$$$
./Esquisandrina.pdbqt
 OpenBabel10282519553D

 32 34  0  0  1  0  0  0  0  0999 V2000
  -33.0970   20.6780  -16.7270 C   0  0  1  0  0  0  0  0  0  0  0  0
  -34.3000   19.8490  -17.2600 C   0  0  2  0  0  3  0  0  0  0  0  0
  -33.3050   22.2080  -16.8780 C   0  0  0  0  0  2  0  0  0  0  0  0
  -35.6090   20.1540  -16.5020 C   0  0  0  0  0  2  0  0  0  0  0  0
  -33.9740   22.8260  -15.6920 C   0  0  0  0  0  0  0  0  0  0  0  0
  -36.3590   21.2530  -17.1920 C   0  0  0  0  0  0  0  0  0  0  0  0
  -32.6490   20.2790  -15.3210 C   0  0  0  0  0  1  0  0  0  0  0  0
  -34.0110   18.3460  -17.2000 C   0  0  0  0  0  1  0  0  0  0  0  0
  -35.3700   22.9450  -15.6420 C   0  0  0  0  0  0  0  0  0  0  0  0
  -36.2060   22.5790  -16.7820 C   0  0  0  0  0  0  0  0  0  0  0  0
  -33.1970   23.2970  -14.6380 C   0  0  0  0  0  3  0  0  0  0  0  0
  -37.1850   20.9340  -18.2750 C   0  0  0  0  0  3  0  0  0  0  0  0
  -35.9710   23.4480  -14.4810 C   0  0  0  0  0  0  0  0  0  0  0  0
  -36.8670   23.5940  -17.4960 C   0  0  0  0  0  0  0  0  0  0  0  0
  -33.8040   23.8280  -13.4910 C   0  0  0  0  0  0  0  0  0  0  0  0
  -37.8620   21.9430  -18.9540 C   0  0  0  0  0  0  0  0  0  0  0  0
  -35.2000   23.8680  -13.3880 C   0  0  0  0  0  0  0  0  0  0  0  0
  -37.6940   23.2910  -18.5780 C   0  0  0  0  0  0  0  0  0  0  0  0
  -32.0150   20.4580  -17.6280 O   0  0  0  0  0  0  0  0  0  0  0  0
  -31.7560   21.2740  -18.0860 H   0  0  0  0  0  0  0  0  0  0  0  0
  -37.3330   23.3680  -14.4140 O   0  0  0  0  0  0  0  0  0  0  0  0
  -37.8200   22.2010  -13.7540 C   0  0  0  0  0  1  0  0  0  0  0  0
  -32.9000   24.2270  -12.5640 O   0  0  0  0  0  0  0  0  0  0  0  0
  -31.8530   23.3270  -12.2230 C   0  0  0  0  0  1  0  0  0  0  0  0
  -36.7340   24.8700  -17.0240 O   0  0  0  0  0  0  0  0  0  0  0  0
  -37.9760   25.4960  -16.7080 C   0  0  0  0  0  1  0  0  0  0  0  0
  -38.7150   21.7700  -19.9940 O   0  0  0  0  0  0  0  0  0  0  0  0
  -39.8170   20.8970  -19.7750 C   0  0  0  0  0  1  0  0  0  0  0  0
  -35.7920   24.3810  -12.2590 O   0  0  0  0  0  0  0  0  0  0  0  0
  -35.3750   23.6920  -11.0780 C   0  0  0  0  0  1  0  0  0  0  0  0
  -38.2670   24.2770  -19.3380 O   0  0  0  0  0  0  0  0  0  0  0  0
  -37.3710   24.7700  -20.3350 C   0  0  0  0  0  1  0  0  0  0  0  0
  1  7  1  1  0  0  0
  2  8  1  1  0  0  0
  2  1  1  0  0  0  0
  2  4  1  0  0  0  0
  3  1  1  0  0  0  0
  3  5  1  0  0  0  0
  5  9  2  0  0  0  0
  5 11  1  0  0  0  0
  6 10  1  0  0  0  0
  6  4  1  0  0  0  0
  9 13  1  0  0  0  0
 10  9  1  0  0  0  0
 11 15  2  0  0  0  0
 12  6  2  0  0  0  0
 13 21  1  0  0  0  0
 13 17  2  0  0  0  0
 14 25  1  0  0  0  0
 14 10  2  0  0  0  0
 15 17  1  0  0  0  0
 15 23  1  0  0  0  0
 16 18  2  0  0  0  0
 16 12  1  0  0  0  0
 17 29  1  0  0  0  0
 18 14  1  0  0  0  0
 19  1  1  0  0  0  0
 20 19  1  0  0  0  0
 21 22  1  0  0  0  0
 23 24  1  0  0  0  0
 25 26  1  0  0  0  0
 27 28  1  0  0  0  0
 27 16  1  0  0  0  0
 29 30  1  0  0  0  0
 31 18  1  0  0  0  0
 32 31  1  0  0  0  0
M  END
>  <MODEL>
11

>  <REMARK>
 VINA RESULT:    -5.882     18.435     21.764
 INTER + INTRA:          -8.086
 INTER:                  -8.317
 INTRA:                   0.231
 UNBOUND:                 0.030
  7 active torsions:
  status: ('A' for Active; 'I' for Inactive)
    1  A    between atoms: O1_1  and  C1_8 
    2  A    between atoms: O2_2  and  C13_20 
    3  A    between atoms: O3_3  and  C14_21 
    4  A    between atoms: O4_4  and  C15_22 
    5  A    between atoms: O5_5  and  C16_23 
    6  A    between atoms: O6_6  and  C17_24 
    7  A    between atoms: O7_7  and  C18_25 

>  <TORSDO>
F 7

$$$$
./Esquisandrina.pdbqt
 OpenBabel10282519553D

 32 34  0  0  1  0  0  0  0  0999 V2000
  -42.2500   26.6820    3.4420 C   0  0  1  0  0  0  0  0  0  0  0  0
  -42.6050   25.7200    2.2730 C   0  0  2  0  0  3  0  0  0  0  0  0
  -42.1170   28.1590    2.9880 C   0  0  0  0  0  2  0  0  0  0  0  0
  -43.9580   26.0620    1.6160 C   0  0  0  0  0  2  0  0  0  0  0  0
  -43.4090   28.9090    3.0530 C   0  0  0  0  0  0  0  0  0  0  0  0
  -43.7500   27.0060    0.4700 C   0  0  0  0  0  0  0  0  0  0  0  0
  -43.1480   26.5190    4.6680 C   0  0  0  0  0  1  0  0  0  0  0  0
  -42.6140   24.2590    2.7360 C   0  0  0  0  0  1  0  0  0  0  0  0
  -44.2620   28.9590    1.9420 C   0  0  0  0  0  0  0  0  0  0  0  0
  -43.8730   28.3840    0.6580 C   0  0  0  0  0  0  0  0  0  0  0  0
  -43.7550   29.5720    4.2270 C   0  0  0  0  0  3  0  0  0  0  0  0
  -43.3970   26.4860   -0.7790 C   0  0  0  0  0  3  0  0  0  0  0  0
  -45.5050   29.5950    2.0640 C   0  0  0  0  0  0  0  0  0  0  0  0
  -43.6000   29.2450   -0.4200 C   0  0  0  0  0  0  0  0  0  0  0  0
  -44.9870   30.2320    4.3320 C   0  0  0  0  0  0  0  0  0  0  0  0
  -43.1620   27.3460   -1.8480 C   0  0  0  0  0  0  0  0  0  0  0  0
  -45.8900   30.2120    3.2620 C   0  0  0  0  0  0  0  0  0  0  0  0
  -43.2470   28.7420   -1.6720 C   0  0  0  0  0  0  0  0  0  0  0  0
  -40.9070   26.3900    3.8220 O   0  0  0  0  0  0  0  0  0  0  0  0
  -40.6050   25.5440    3.4520 H   0  0  0  0  0  0  0  0  0  0  0  0
  -46.3690   29.4520    1.0150 O   0  0  0  0  0  0  0  0  0  0  0  0
  -47.2120   28.3050    1.1030 C   0  0  0  0  0  1  0  0  0  0  0  0
  -45.1630   30.8120    5.5440 O   0  0  0  0  0  0  0  0  0  0  0  0
  -44.1000   31.6000    6.0650 C   0  0  0  0  0  1  0  0  0  0  0  0
  -43.7890   30.5820   -0.2060 O   0  0  0  0  0  0  0  0  0  0  0  0
  -42.6370   31.2470    0.3110 C   0  0  0  0  0  1  0  0  0  0  0  0
  -42.8460   26.9750   -3.1150 O   0  0  0  0  0  0  0  0  0  0  0  0
  -43.2370   25.6660   -3.5110 C   0  0  0  0  0  1  0  0  0  0  0  0
  -47.1000   30.8530    3.3700 O   0  0  0  0  0  0  0  0  0  0  0  0
  -48.0520   30.0780    4.1040 C   0  0  0  0  0  1  0  0  0  0  0  0
  -42.8880   29.5720   -2.7010 O   0  0  0  0  0  0  0  0  0  0  0  0
  -44.0250   30.0520   -3.4200 C   0  0  0  0  0  1  0  0  0  0  0  0
  1 19  1  0  0  0  0
  1  7  1  1  0  0  0
  2  8  1  1  0  0  0
  2  1  1  0  0  0  0
  3  5  1  0  0  0  0
  3  1  1  0  0  0  0
  4  2  1  0  0  0  0
  5 11  1  0  0  0  0
  6 10  1  0  0  0  0
  6  4  1  0  0  0  0
  9 13  1  0  0  0  0
  9  5  2  0  0  0  0
 10  9  1  0  0  0  0
 11 15  2  0  0  0  0
 12  6  2  0  0  0  0
 13 17  2  0  0  0  0
 14 25  1  0  0  0  0
 14 10  2  0  0  0  0
 15 23  1  0  0  0  0
 16 18  2  0  0  0  0
 16 12  1  0  0  0  0
 17 29  1  0  0  0  0
 17 15  1  0  0  0  0
 18 14  1  0  0  0  0
 20 19  1  0  0  0  0
 21 22  1  0  0  0  0
 21 13  1  0  0  0  0
 23 24  1  0  0  0  0
 25 26  1  0  0  0  0
 27 16  1  0  0  0  0
 28 27  1  0  0  0  0
 29 30  1  0  0  0  0
 31 18  1  0  0  0  0
 32 31  1  0  0  0  0
M  END
>  <MODEL>
12

>  <REMARK>
 VINA RESULT:    -5.876      2.359      3.657
 INTER + INTRA:          -8.078
 INTER:                  -7.842
 INTRA:                  -0.236
 UNBOUND:                 0.030
  7 active torsions:
  status: ('A' for Active; 'I' for Inactive)
    1  A    between atoms: O1_1  and  C1_8 
    2  A    between atoms: O2_2  and  C13_20 
    3  A    between atoms: O3_3  and  C14_21 
    4  A    between atoms: O4_4  and  C15_22 
    5  A    between atoms: O5_5  and  C16_23 
    6  A    between atoms: O6_6  and  C17_24 
    7  A    between atoms: O7_7  and  C18_25 

>  <TORSDO>
F 7

$$$$
./Esquisandrina.pdbqt
 OpenBabel10282519553D

 32 34  0  0  1  0  0  0  0  0999 V2000
  -44.7890   28.9850    5.3860 C   0  0  1  0  0  0  0  0  0  0  0  0
  -43.3120   28.5000    5.3580 C   0  0  2  0  0  3  0  0  0  0  0  0
  -45.0350   30.2240    4.4850 C   0  0  0  0  0  2  0  0  0  0  0  0
  -42.8600   28.0670    3.9480 C   0  0  0  0  0  2  0  0  0  0  0  0
  -45.4100   29.8610    3.0840 C   0  0  0  0  0  0  0  0  0  0  0  0
  -42.2500   29.2290    3.2240 C   0  0  0  0  0  0  0  0  0  0  0  0
  -45.8090   27.8720    5.1500 C   0  0  0  0  0  1  0  0  0  0  0  0
  -43.0840   27.3510    6.3460 C   0  0  0  0  0  1  0  0  0  0  0  0
  -44.4270   29.7120    2.0970 C   0  0  0  0  0  0  0  0  0  0  0  0
  -43.0240   30.0150    2.3680 C   0  0  0  0  0  0  0  0  0  0  0  0
  -46.7530   29.6840    2.7620 C   0  0  0  0  0  3  0  0  0  0  0  0
  -40.9030   29.5330    3.4450 C   0  0  0  0  0  3  0  0  0  0  0  0
  -44.8040   29.2860    0.8160 C   0  0  0  0  0  0  0  0  0  0  0  0
  -42.4390   31.1400    1.7610 C   0  0  0  0  0  0  0  0  0  0  0  0
  -47.1250   29.2870    1.4700 C   0  0  0  0  0  0  0  0  0  0  0  0
  -40.3250   30.6290    2.8130 C   0  0  0  0  0  0  0  0  0  0  0  0
  -46.1470   29.0440    0.4980 C   0  0  0  0  0  0  0  0  0  0  0  0
  -41.0980   31.4570    1.9730 C   0  0  0  0  0  0  0  0  0  0  0  0
  -45.0150   29.5400    6.6810 O   0  0  0  0  0  0  0  0  0  0  0  0
  -44.4480   30.3100    6.8460 H   0  0  0  0  0  0  0  0  0  0  0  0
  -43.7900   28.9790   -0.0480 O   0  0  0  0  0  0  0  0  0  0  0  0
  -43.5310   27.5820   -0.1730 C   0  0  0  0  0  1  0  0  0  0  0  0
  -48.4680   29.1520    1.3360 O   0  0  0  0  0  0  0  0  0  0  0  0
  -49.2190   28.7910    2.4880 C   0  0  0  0  0  1  0  0  0  0  0  0
  -43.2200   31.8470    0.8880 O   0  0  0  0  0  0  0  0  0  0  0  0
  -43.9160   32.9340    1.4950 C   0  0  0  0  0  1  0  0  0  0  0  0
  -39.0280   31.0160    2.9130 O   0  0  0  0  0  0  0  0  0  0  0  0
  -38.5590   31.3380    4.2170 C   0  0  0  0  0  1  0  0  0  0  0  0
  -46.5150   28.6480   -0.7650 O   0  0  0  0  0  0  0  0  0  0  0  0
  -46.7630   29.7640   -1.6230 C   0  0  0  0  0  1  0  0  0  0  0  0
  -40.5430   32.6010    1.4620 O   0  0  0  0  0  0  0  0  0  0  0  0
  -40.6500   33.6970    2.3730 C   0  0  0  0  0  1  0  0  0  0  0  0
  1  7  1  6  0  0  0
  1 19  1  0  0  0  0
  2  1  1  0  0  0  0
  2  8  1  1  0  0  0
  3  1  1  0  0  0  0
  4  2  1  0  0  0  0
  5  3  1  0  0  0  0
  6 12  1  0  0  0  0
  6  4  1  0  0  0  0
  9 10  1  0  0  0  0
  9  5  2  0  0  0  0
 10  6  2  0  0  0  0
 11  5  1  0  0  0  0
 13  9  1  0  0  0  0
 14 18  2  0  0  0  0
 14 10  1  0  0  0  0
 15 11  2  0  0  0  0
 16 27  1  0  0  0  0
 16 12  2  0  0  0  0
 17 13  2  0  0  0  0
 17 15  1  0  0  0  0
 18 16  1  0  0  0  0
 19 20  1  0  0  0  0
 21 13  1  0  0  0  0
 22 21  1  0  0  0  0
 23 15  1  0  0  0  0
 23 24  1  0  0  0  0
 25 26  1  0  0  0  0
 25 14  1  0  0  0  0
 27 28  1  0  0  0  0
 29 17  1  0  0  0  0
 30 29  1  0  0  0  0
 31 18  1  0  0  0  0
 31 32  1  0  0  0  0
M  END
>  <MODEL>
13

>  <REMARK>
 VINA RESULT:    -5.788      2.205      5.958
 INTER + INTRA:          -7.957
 INTER:                  -7.647
 INTRA:                  -0.310
 UNBOUND:                 0.030
  7 active torsions:
  status: ('A' for Active; 'I' for Inactive)
    1  A    between atoms: O1_1  and  C1_8 
    2  A    between atoms: O2_2  and  C13_20 
    3  A    between atoms: O3_3  and  C14_21 
    4  A    between atoms: O4_4  and  C15_22 
    5  A    between atoms: O5_5  and  C16_23 
    6  A    between atoms: O6_6  and  C17_24 
    7  A    between atoms: O7_7  and  C18_25 

>  <TORSDO>
F 7

$$$$
./Esquisandrina.pdbqt
 OpenBabel10282519553D

 32 34  0  0  1  0  0  0  0  0999 V2000
  -45.0650   28.4270   -2.0380 C   0  0  1  0  0  0  0  0  0  0  0  0
  -45.7960   29.5280   -1.2190 C   0  0  2  0  0  3  0  0  0  0  0  0
  -43.6380   28.1270   -1.5070 C   0  0  0  0  0  2  0  0  0  0  0  0
  -45.9910   29.1330    0.2600 C   0  0  0  0  0  2  0  0  0  0  0  0
  -43.6170   27.0580   -0.4630 C   0  0  0  0  0  0  0  0  0  0  0  0
  -44.8330   29.6170    1.0790 C   0  0  0  0  0  0  0  0  0  0  0  0
  -45.8950   27.1610   -2.2460 C   0  0  0  0  0  1  0  0  0  0  0  0
  -47.1520   29.8780   -1.8410 C   0  0  0  0  0  1  0  0  0  0  0  0
  -43.7280   27.3840    0.8960 C   0  0  0  0  0  0  0  0  0  0  0  0
  -43.7530   28.7730    1.3450 C   0  0  0  0  0  0  0  0  0  0  0  0
  -43.4700   25.7290   -0.8500 C   0  0  0  0  0  3  0  0  0  0  0  0
  -44.8370   30.9370    1.5430 C   0  0  0  0  0  3  0  0  0  0  0  0
  -43.7920   26.3530    1.8430 C   0  0  0  0  0  0  0  0  0  0  0  0
  -42.6510   29.2810    2.0550 C   0  0  0  0  0  0  0  0  0  0  0  0
  -43.5060   24.7040    0.1060 C   0  0  0  0  0  0  0  0  0  0  0  0
  -43.7550   31.4190    2.2740 C   0  0  0  0  0  0  0  0  0  0  0  0
  -43.7090   25.0090    1.4580 C   0  0  0  0  0  0  0  0  0  0  0  0
  -42.6390   30.5940    2.5230 C   0  0  0  0  0  0  0  0  0  0  0  0
  -44.7700   28.9910   -3.3140 O   0  0  0  0  0  0  0  0  0  0  0  0
  -43.8710   29.3540   -3.3470 H   0  0  0  0  0  0  0  0  0  0  0  0
  -44.0870   26.7200    3.1250 O   0  0  0  0  0  0  0  0  0  0  0  0
  -45.4730   26.6380    3.4540 C   0  0  0  0  0  1  0  0  0  0  0  0
  -43.3590   23.4740   -0.4460 O   0  0  0  0  0  0  0  0  0  0  0  0
  -43.0620   23.4000   -1.8350 C   0  0  0  0  0  1  0  0  0  0  0  0
  -41.6420   28.4030    2.3400 O   0  0  0  0  0  0  0  0  0  0  0  0
  -41.3850   28.2610    3.7360 C   0  0  0  0  0  1  0  0  0  0  0  0
  -43.6440   32.6620    2.8080 O   0  0  0  0  0  0  0  0  0  0  0  0
  -44.0740   33.7450    1.9930 C   0  0  0  0  0  1  0  0  0  0  0  0
  -43.7500   24.0010    2.3910 O   0  0  0  0  0  0  0  0  0  0  0  0
  -42.4570   23.7230    2.9340 C   0  0  0  0  0  1  0  0  0  0  0  0
  -41.5330   31.1270    3.1330 O   0  0  0  0  0  0  0  0  0  0  0  0
  -40.5720   31.5890    2.1830 C   0  0  0  0  0  1  0  0  0  0  0  0
  1  7  1  6  0  0  0
  1  3  1  0  0  0  0
  1  2  1  0  0  0  0
  2  8  1  6  0  0  0
  2  4  1  0  0  0  0
  3  5  1  0  0  0  0
  4  6  1  0  0  0  0
  5  9  1  0  0  0  0
  6 10  2  0  0  0  0
  6 12  1  0  0  0  0
  9 10  1  0  0  0  0
  9 13  2  0  0  0  0
 10 14  1  0  0  0  0
 11  5  2  0  0  0  0
 11 15  1  0  0  0  0
 12 16  2  0  0  0  0
 13 21  1  0  0  0  0
 14 25  1  0  0  0  0
 14 18  2  0  0  0  0
 15 17  2  0  0  0  0
 16 18  1  0  0  0  0
 16 27  1  0  0  0  0
 17 13  1  0  0  0  0
 17 29  1  0  0  0  0
 18 31  1  0  0  0  0
 19  1  1  0  0  0  0
 20 19  1  0  0  0  0
 21 22  1  0  0  0  0
 23 15  1  0  0  0  0
 24 23  1  0  0  0  0
 25 26  1  0  0  0  0
 28 27  1  0  0  0  0
 29 30  1  0  0  0  0
 32 31  1  0  0  0  0
M  END
>  <MODEL>
14

>  <REMARK>
 VINA RESULT:    -5.736      2.684      6.633
 INTER + INTRA:          -7.885
 INTER:                  -7.779
 INTRA:                  -0.107
 UNBOUND:                 0.030
  7 active torsions:
  status: ('A' for Active; 'I' for Inactive)
    1  A    between atoms: O1_1  and  C1_8 
    2  A    between atoms: O2_2  and  C13_20 
    3  A    between atoms: O3_3  and  C14_21 
    4  A    between atoms: O4_4  and  C15_22 
    5  A    between atoms: O5_5  and  C16_23 
    6  A    between atoms: O6_6  and  C17_24 
    7  A    between atoms: O7_7  and  C18_25 

>  <TORSDO>
F 7

$$$$
./Esquisandrina.pdbqt
 OpenBabel10282519553D

 32 34  0  0  1  0  0  0  0  0999 V2000
  -46.4790   30.0030    4.3020 C   0  0  1  0  0  0  0  0  0  0  0  0
  -46.6370   29.3230    2.9120 C   0  0  2  0  0  3  0  0  0  0  0  0
  -45.2410   29.4940    5.0850 C   0  0  0  0  0  2  0  0  0  0  0  0
  -45.4350   29.5910    1.9830 C   0  0  0  0  0  2  0  0  0  0  0  0
  -44.0050   30.2850    4.8010 C   0  0  0  0  0  0  0  0  0  0  0  0
  -44.4110   28.5080    2.1400 C   0  0  0  0  0  0  0  0  0  0  0  0
  -46.5610   31.5280    4.2540 C   0  0  0  0  0  1  0  0  0  0  0  0
  -47.9300   29.7650    2.2190 C   0  0  0  0  0  1  0  0  0  0  0  0
  -43.1340   29.9040    3.7710 C   0  0  0  0  0  0  0  0  0  0  0  0
  -43.3390   28.6690    3.0200 C   0  0  0  0  0  0  0  0  0  0  0  0
  -43.7150   31.4010    5.5810 C   0  0  0  0  0  3  0  0  0  0  0  0
  -44.5670   27.3200    1.4170 C   0  0  0  0  0  3  0  0  0  0  0  0
  -42.0310   30.7160    3.4740 C   0  0  0  0  0  0  0  0  0  0  0  0
  -42.4380   27.6050    3.1970 C   0  0  0  0  0  0  0  0  0  0  0  0
  -42.5930   32.1920    5.2960 C   0  0  0  0  0  0  0  0  0  0  0  0
  -43.6500   26.2860    1.5760 C   0  0  0  0  0  0  0  0  0  0  0  0
  -41.7650   31.8770    4.2120 C   0  0  0  0  0  0  0  0  0  0  0  0
  -42.5800   26.4140    2.4850 C   0  0  0  0  0  0  0  0  0  0  0  0
  -47.5410   29.5170    5.1200 O   0  0  0  0  0  0  0  0  0  0  0  0
  -48.0200   28.7890    4.6930 H   0  0  0  0  0  0  0  0  0  0  0  0
  -41.3270   30.4000    2.3470 O   0  0  0  0  0  0  0  0  0  0  0  0
  -41.7100   31.1410    1.1890 C   0  0  0  0  0  1  0  0  0  0  0  0
  -42.4700   33.2420    6.1460 O   0  0  0  0  0  0  0  0  0  0  0  0
  -42.9470   33.0810    7.4760 C   0  0  0  0  0  1  0  0  0  0  0  0
  -41.3720   27.8290    4.0250 O   0  0  0  0  0  0  0  0  0  0  0  0
  -41.6220   27.4800    5.3850 C   0  0  0  0  0  1  0  0  0  0  0  0
  -43.6640   25.1000    0.9160 O   0  0  0  0  0  0  0  0  0  0  0  0
  -43.3840   25.1430   -0.4780 C   0  0  0  0  0  1  0  0  0  0  0  0
  -40.6710   32.6590    3.9320 O   0  0  0  0  0  0  0  0  0  0  0  0
  -39.4940   32.1870    4.5940 C   0  0  0  0  0  1  0  0  0  0  0  0
  -41.7640   25.3380    2.7180 O   0  0  0  0  0  0  0  0  0  0  0  0
  -42.3220   24.4470    3.6850 C   0  0  0  0  0  1  0  0  0  0  0  0
  1  7  1  6  0  0  0
  1  3  1  0  0  0  0
  1 19  1  0  0  0  0
  2  8  1  6  0  0  0
  2  1  1  0  0  0  0
  4  6  1  0  0  0  0
  4  2  1  0  0  0  0
  5  3  1  0  0  0  0
  5 11  1  0  0  0  0
  6 10  1  0  0  0  0
  9  5  2  0  0  0  0
 10 14  2  0  0  0  0
 10  9  1  0  0  0  0
 12 16  1  0  0  0  0
 12  6  2  0  0  0  0
 13  9  1  0  0  0  0
 13 17  2  0  0  0  0
 14 25  1  0  0  0  0
 15 11  2  0  0  0  0
 15 23  1  0  0  0  0
 16 18  2  0  0  0  0
 17 15  1  0  0  0  0
 18 31  1  0  0  0  0
 18 14  1  0  0  0  0
 20 19  1  0  0  0  0
 21 13  1  0  0  0  0
 22 21  1  0  0  0  0
 23 24  1  0  0  0  0
 25 26  1  0  0  0  0
 27 16  1  0  0  0  0
 28 27  1  0  0  0  0
 29 17  1  0  0  0  0
 29 30  1  0  0  0  0
 31 32  1  0  0  0  0
M  END
>  <MODEL>
15

>  <REMARK>
 VINA RESULT:    -5.708      2.170      4.554
 INTER + INTRA:          -7.847
 INTER:                  -7.529
 INTRA:                  -0.318
 UNBOUND:                 0.030
  7 active torsions:
  status: ('A' for Active; 'I' for Inactive)
    1  A    between atoms: O1_1  and  C1_8 
    2  A    between atoms: O2_2  and  C13_20 
    3  A    between atoms: O3_3  and  C14_21 
    4  A    between atoms: O4_4  and  C15_22 
    5  A    between atoms: O5_5  and  C16_23 
    6  A    between atoms: O6_6  and  C17_24 
    7  A    between atoms: O7_7  and  C18_25 

>  <TORSDO>
F 7

$$$$
./Esquisandrina.pdbqt
 OpenBabel10282519553D

 32 34  0  0  1  0  0  0  0  0999 V2000
  -34.4650   47.8600   -7.7100 C   0  0  1  0  0  0  0  0  0  0  0  0
  -33.6800   46.6020   -7.2440 C   0  0  2  0  0  3  0  0  0  0  0  0
  -35.4180   48.4140   -6.6190 C   0  0  0  0  0  2  0  0  0  0  0  0
  -32.7750   46.8870   -6.0270 C   0  0  0  0  0  2  0  0  0  0  0  0
  -34.7640   49.4220   -5.7300 C   0  0  0  0  0  0  0  0  0  0  0  0
  -33.5190   46.6090   -4.7570 C   0  0  0  0  0  0  0  0  0  0  0  0
  -33.5830   48.9430   -8.3290 C   0  0  0  0  0  1  0  0  0  0  0  0
  -32.8380   46.0160   -8.3830 C   0  0  0  0  0  1  0  0  0  0  0  0
  -34.1280   49.0230   -4.5460 C   0  0  0  0  0  0  0  0  0  0  0  0
  -34.1800   47.6390   -4.0840 C   0  0  0  0  0  0  0  0  0  0  0  0
  -34.8020   50.7690   -6.0800 C   0  0  0  0  0  3  0  0  0  0  0  0
  -33.5690   45.2970   -4.2750 C   0  0  0  0  0  3  0  0  0  0  0  0
  -33.4490   49.9800   -3.7800 C   0  0  0  0  0  0  0  0  0  0  0  0
  -34.9280   47.3310   -2.9340 C   0  0  0  0  0  0  0  0  0  0  0  0
  -34.1450   51.7250   -5.2920 C   0  0  0  0  0  0  0  0  0  0  0  0
  -34.2860   45.0090   -3.1170 C   0  0  0  0  0  0  0  0  0  0  0  0
  -33.4270   51.3290   -4.1570 C   0  0  0  0  0  0  0  0  0  0  0  0
  -34.9890   46.0280   -2.4420 C   0  0  0  0  0  0  0  0  0  0  0  0
  -35.4000   47.4200   -8.6930 O   0  0  0  0  0  0  0  0  0  0  0  0
  -34.9550   47.0800   -9.4860 H   0  0  0  0  0  0  0  0  0  0  0  0
  -32.6940   49.5080   -2.7430 O   0  0  0  0  0  0  0  0  0  0  0  0
  -31.3200   49.3010   -3.0660 C   0  0  0  0  0  1  0  0  0  0  0  0
  -34.2760   52.9810   -5.7850 O   0  0  0  0  0  0  0  0  0  0  0  0
  -35.5320   53.6300   -5.6270 C   0  0  0  0  0  1  0  0  0  0  0  0
  -35.5110   48.3790   -2.2770 O   0  0  0  0  0  0  0  0  0  0  0  0
  -36.8830   48.5740   -2.6140 C   0  0  0  0  0  1  0  0  0  0  0  0
  -34.3900   43.7920   -2.5260 O   0  0  0  0  0  0  0  0  0  0  0  0
  -33.2020   43.2570   -1.9560 C   0  0  0  0  0  1  0  0  0  0  0  0
  -32.7790   52.2680   -3.3910 O   0  0  0  0  0  0  0  0  0  0  0  0
  -33.6330   52.8190   -2.3850 C   0  0  0  0  0  1  0  0  0  0  0  0
  -35.7900   45.7000   -1.3790 O   0  0  0  0  0  0  0  0  0  0  0  0
  -35.1830   46.0360   -0.1310 C   0  0  0  0  0  1  0  0  0  0  0  0
  1  7  1  6  0  0  0
  1  2  1  0  0  0  0
  1  3  1  0  0  0  0
  2  8  1  6  0  0  0
  2  4  1  0  0  0  0
  3  5  1  0  0  0  0
  4  6  1  0  0  0  0
  5  9  1  0  0  0  0
  6 12  2  0  0  0  0
  6 10  1  0  0  0  0
  9 10  1  0  0  0  0
  9 13  2  0  0  0  0
 10 14  2  0  0  0  0
 11  5  2  0  0  0  0
 11 15  1  0  0  0  0
 12 16  1  0  0  0  0
 13 21  1  0  0  0  0
 14 18  1  0  0  0  0
 14 25  1  0  0  0  0
 15 17  2  0  0  0  0
 16 27  1  0  0  0  0
 16 18  2  0  0  0  0
 17 13  1  0  0  0  0
 17 29  1  0  0  0  0
 18 31  1  0  0  0  0
 19  1  1  0  0  0  0
 20 19  1  0  0  0  0
 22 21  1  0  0  0  0
 23 24  1  0  0  0  0
 23 15  1  0  0  0  0
 26 25  1  0  0  0  0
 27 28  1  0  0  0  0
 29 30  1  0  0  0  0
 31 32  1  0  0  0  0
M  END
>  <MODEL>
16

>  <REMARK>
 VINA RESULT:    -5.702     19.150     22.235
 INTER + INTRA:          -7.838
 INTER:                  -7.376
 INTRA:                  -0.462
 UNBOUND:                 0.030
  7 active torsions:
  status: ('A' for Active; 'I' for Inactive)
    1  A    between atoms: O1_1  and  C1_8 
    2  A    between atoms: O2_2  and  C13_20 
    3  A    between atoms: O3_3  and  C14_21 
    4  A    between atoms: O4_4  and  C15_22 
    5  A    between atoms: O5_5  and  C16_23 
    6  A    between atoms: O6_6  and  C17_24 
    7  A    between atoms: O7_7  and  C18_25 

>  <TORSDO>
F 7

$$$$
./Esquisandrina.pdbqt
 OpenBabel10282519553D

 32 34  0  0  1  0  0  0  0  0999 V2000
   -7.1910   35.9780   10.0760 C   0  0  1  0  0  0  0  0  0  0  0  0
   -7.5000   37.4940    9.9280 C   0  0  2  0  0  3  0  0  0  0  0  0
   -6.1690   35.4650    9.0270 C   0  0  0  0  0  2  0  0  0  0  0  0
   -6.2480   38.3740   10.1220 C   0  0  0  0  0  2  0  0  0  0  0  0
   -4.7520   35.5760    9.4900 C   0  0  0  0  0  0  0  0  0  0  0  0
   -5.5800   38.6180    8.8030 C   0  0  0  0  0  0  0  0  0  0  0  0
   -6.8340   35.5580   11.5020 C   0  0  0  0  0  1  0  0  0  0  0  0
   -8.5960   37.9370   10.9020 C   0  0  0  0  0  1  0  0  0  0  0  0
   -4.0000   36.7270    9.2170 C   0  0  0  0  0  0  0  0  0  0  0  0
   -4.5290   37.8010    8.3810 C   0  0  0  0  0  0  0  0  0  0  0  0
   -4.1760   34.5170   10.1860 C   0  0  0  0  0  3  0  0  0  0  0  0
   -6.0500   39.6520    7.9870 C   0  0  0  0  0  3  0  0  0  0  0  0
   -2.7050   36.8360    9.7400 C   0  0  0  0  0  0  0  0  0  0  0  0
   -3.9730   38.0110    7.1070 C   0  0  0  0  0  0  0  0  0  0  0  0
   -2.8680   34.6220   10.6810 C   0  0  0  0  0  0  0  0  0  0  0  0
   -5.4690   39.8720    6.7410 C   0  0  0  0  0  0  0  0  0  0  0  0
   -2.1380   35.8020   10.4960 C   0  0  0  0  0  0  0  0  0  0  0  0
   -4.4300   39.0380    6.2820 C   0  0  0  0  0  0  0  0  0  0  0  0
   -8.3670   35.2770    9.6780 O   0  0  0  0  0  0  0  0  0  0  0  0
   -8.4530   35.2380    8.7120 H   0  0  0  0  0  0  0  0  0  0  0  0
   -2.0910   38.0490    9.6020 O   0  0  0  0  0  0  0  0  0  0  0  0
   -2.2490   38.9170   10.7230 C   0  0  0  0  0  1  0  0  0  0  0  0
   -2.4730   33.5050   11.3410 O   0  0  0  0  0  0  0  0  0  0  0  0
   -2.5300   33.5170   12.7620 C   0  0  0  0  0  1  0  0  0  0  0  0
   -2.9090   37.2240    6.7600 O   0  0  0  0  0  0  0  0  0  0  0  0
   -3.2780   36.0460    6.0460 C   0  0  0  0  0  1  0  0  0  0  0  0
   -5.8030   40.8560    5.8690 O   0  0  0  0  0  0  0  0  0  0  0  0
   -7.1660   41.2640    5.8620 C   0  0  0  0  0  1  0  0  0  0  0  0
   -0.8590   35.9030   10.9880 O   0  0  0  0  0  0  0  0  0  0  0  0
    0.1130   35.4380   10.0490 C   0  0  0  0  0  1  0  0  0  0  0  0
   -3.9600   39.1920    5.0030 O   0  0  0  0  0  0  0  0  0  0  0  0
   -2.7610   39.9670    4.9660 C   0  0  0  0  0  1  0  0  0  0  0  0
  1  7  1  1  0  0  0
  2  1  1  0  0  0  0
  2  4  1  0  0  0  0
  2  8  1  1  0  0  0
  3  5  1  0  0  0  0
  3  1  1  0  0  0  0
  5 11  1  0  0  0  0
  6  4  1  0  0  0  0
  9  5  2  0  0  0  0
  9 13  1  0  0  0  0
 10  6  1  0  0  0  0
 10  9  1  0  0  0  0
 11 15  2  0  0  0  0
 12  6  2  0  0  0  0
 13 17  2  0  0  0  0
 14 10  2  0  0  0  0
 15 23  1  0  0  0  0
 16 12  1  0  0  0  0
 17 15  1  0  0  0  0
 17 29  1  0  0  0  0
 18 16  2  0  0  0  0
 18 14  1  0  0  0  0
 19  1  1  0  0  0  0
 20 19  1  0  0  0  0
 21 13  1  0  0  0  0
 21 22  1  0  0  0  0
 23 24  1  0  0  0  0
 25 14  1  0  0  0  0
 26 25  1  0  0  0  0
 27 16  1  0  0  0  0
 28 27  1  0  0  0  0
 30 29  1  0  0  0  0
 31 18  1  0  0  0  0
 32 31  1  0  0  0  0
M  END
>  <MODEL>
17

>  <REMARK>
 VINA RESULT:    -5.662     36.408     40.027
 INTER + INTRA:          -7.783
 INTER:                  -7.415
 INTRA:                  -0.368
 UNBOUND:                 0.030
  7 active torsions:
  status: ('A' for Active; 'I' for Inactive)
    1  A    between atoms: O1_1  and  C1_8 
    2  A    between atoms: O2_2  and  C13_20 
    3  A    between atoms: O3_3  and  C14_21 
    4  A    between atoms: O4_4  and  C15_22 
    5  A    between atoms: O5_5  and  C16_23 
    6  A    between atoms: O6_6  and  C17_24 
    7  A    between atoms: O7_7  and  C18_25 

>  <TORSDO>
F 7

$$$$
./Esquisandrina.pdbqt
 OpenBabel10282519553D

 32 34  0  0  1  0  0  0  0  0999 V2000
  -41.3870   36.4710   11.5980 C   0  0  1  0  0  0  0  0  0  0  0  0
  -41.3770   35.6390   12.9110 C   0  0  2  0  0  3  0  0  0  0  0  0
  -40.9290   37.9380   11.8100 C   0  0  0  0  0  2  0  0  0  0  0  0
  -39.9690   35.5350   13.5340 C   0  0  0  0  0  2  0  0  0  0  0  0
  -39.4530   38.1170   11.6540 C   0  0  0  0  0  0  0  0  0  0  0  0
  -39.7550   36.6500   14.5110 C   0  0  0  0  0  0  0  0  0  0  0  0
  -40.6700   35.7920   10.4320 C   0  0  0  0  0  1  0  0  0  0  0  0
  -41.9430   34.2330   12.6840 C   0  0  0  0  0  1  0  0  0  0  0  0
  -38.6000   38.0070   12.7610 C   0  0  0  0  0  0  0  0  0  0  0  0
  -39.1250   37.8300   14.1120 C   0  0  0  0  0  0  0  0  0  0  0  0
  -38.9300   38.4090   10.3980 C   0  0  0  0  0  3  0  0  0  0  0  0
  -40.2270   36.5030   15.8200 C   0  0  0  0  0  3  0  0  0  0  0  0
  -37.2150   38.0940   12.5660 C   0  0  0  0  0  0  0  0  0  0  0  0
  -39.0050   38.8840   15.0340 C   0  0  0  0  0  0  0  0  0  0  0  0
  -37.5440   38.5240   10.2160 C   0  0  0  0  0  0  0  0  0  0  0  0
  -40.0730   37.5410   16.7350 C   0  0  0  0  0  0  0  0  0  0  0  0
  -36.6740   38.3250   11.2940 C   0  0  0  0  0  0  0  0  0  0  0  0
  -39.4710   38.7540   16.3420 C   0  0  0  0  0  0  0  0  0  0  0  0
  -42.7550   36.6590   11.2410 O   0  0  0  0  0  0  0  0  0  0  0  0
  -43.1560   35.8400   10.9090 H   0  0  0  0  0  0  0  0  0  0  0  0
  -36.4280   37.7940   13.6420 O   0  0  0  0  0  0  0  0  0  0  0  0
  -36.0910   36.4130   13.7560 C   0  0  0  0  0  1  0  0  0  0  0  0
  -37.2110   38.7990    8.9310 O   0  0  0  0  0  0  0  0  0  0  0  0
  -37.1660   40.1640    8.5330 C   0  0  0  0  0  1  0  0  0  0  0  0
  -38.3310   39.9980   14.6150 O   0  0  0  0  0  0  0  0  0  0  0  0
  -37.1980   40.3190   15.4210 C   0  0  0  0  0  1  0  0  0  0  0  0
  -40.4530   37.5180   18.0370 O   0  0  0  0  0  0  0  0  0  0  0  0
  -39.9850   36.4250   18.8180 C   0  0  0  0  0  1  0  0  0  0  0  0
  -35.3160   38.4310   11.1110 O   0  0  0  0  0  0  0  0  0  0  0  0
  -34.8430   39.7530   11.3790 C   0  0  0  0  0  1  0  0  0  0  0  0
  -39.4440   39.8050   17.2200 O   0  0  0  0  0  0  0  0  0  0  0  0
  -40.5500   40.6880   17.0280 C   0  0  0  0  0  1  0  0  0  0  0  0
  1  7  1  6  0  0  0
  1  3  1  0  0  0  0
  1  2  1  0  0  0  0
  2  8  1  6  0  0  0
  2  4  1  0  0  0  0
  4  6  1  0  0  0  0
  5  3  1  0  0  0  0
  5  9  1  0  0  0  0
  6 12  1  0  0  0  0
  9 10  1  0  0  0  0
 10  6  2  0  0  0  0
 10 14  1  0  0  0  0
 11  5  2  0  0  0  0
 12 16  2  0  0  0  0
 13  9  2  0  0  0  0
 13 21  1  0  0  0  0
 14 18  2  0  0  0  0
 15 11  1  0  0  0  0
 15 17  2  0  0  0  0
 16 27  1  0  0  0  0
 17 13  1  0  0  0  0
 18 16  1  0  0  0  0
 18 31  1  0  0  0  0
 19  1  1  0  0  0  0
 20 19  1  0  0  0  0
 21 22  1  0  0  0  0
 23 15  1  0  0  0  0
 24 23  1  0  0  0  0
 25 14  1  0  0  0  0
 25 26  1  0  0  0  0
 27 28  1  0  0  0  0
 29 17  1  0  0  0  0
 29 30  1  0  0  0  0
 32 31  1  0  0  0  0
M  END
>  <MODEL>
18

>  <REMARK>
 VINA RESULT:    -5.638     10.741     14.907
 INTER + INTRA:          -7.750
 INTER:                  -7.658
 INTRA:                  -0.092
 UNBOUND:                 0.030
  7 active torsions:
  status: ('A' for Active; 'I' for Inactive)
    1  A    between atoms: O1_1  and  C1_8 
    2  A    between atoms: O2_2  and  C13_20 
    3  A    between atoms: O3_3  and  C14_21 
    4  A    between atoms: O4_4  and  C15_22 
    5  A    between atoms: O5_5  and  C16_23 
    6  A    between atoms: O6_6  and  C17_24 
    7  A    between atoms: O7_7  and  C18_25 

>  <TORSDO>
F 7

$$$$
./Esquisandrina.pdbqt
 OpenBabel10282519553D

 32 34  0  0  1  0  0  0  0  0999 V2000
   -2.6270   38.8790   12.5500 C   0  0  1  0  0  0  0  0  0  0  0  0
   -2.8240   39.9600   11.4510 C   0  0  2  0  0  3  0  0  0  0  0  0
   -3.8840   37.9930   12.7570 C   0  0  0  0  0  2  0  0  0  0  0  0
   -3.1170   39.3480   10.0650 C   0  0  0  0  0  2  0  0  0  0  0  0
   -3.8970   36.7840   11.8780 C   0  0  0  0  0  0  0  0  0  0  0  0
   -4.5960   39.2080    9.8660 C   0  0  0  0  0  0  0  0  0  0  0  0
   -1.3480   38.0590   12.3860 C   0  0  0  0  0  1  0  0  0  0  0  0
   -1.6070   40.8870   11.3560 C   0  0  0  0  0  1  0  0  0  0  0  0
   -4.5040   36.8260   10.6150 C   0  0  0  0  0  0  0  0  0  0  0  0
   -5.2390   38.0040   10.1630 C   0  0  0  0  0  0  0  0  0  0  0  0
   -3.3110   35.6050   12.3300 C   0  0  0  0  0  3  0  0  0  0  0  0
   -5.3250   40.3120    9.4130 C   0  0  0  0  0  3  0  0  0  0  0  0
   -4.4230   35.7030    9.7810 C   0  0  0  0  0  0  0  0  0  0  0  0
   -6.6360   37.9290   10.0340 C   0  0  0  0  0  0  0  0  0  0  0  0
   -3.2600   34.4760   11.5010 C   0  0  0  0  0  0  0  0  0  0  0  0
   -6.7050   40.2160    9.2580 C   0  0  0  0  0  0  0  0  0  0  0  0
   -3.7800   34.5320   10.2020 C   0  0  0  0  0  0  0  0  0  0  0  0
   -7.3780   39.0210    9.5840 C   0  0  0  0  0  0  0  0  0  0  0  0
   -2.5680   39.5670   13.7980 O   0  0  0  0  0  0  0  0  0  0  0  0
   -2.6840   40.5240   13.6860 H   0  0  0  0  0  0  0  0  0  0  0  0
   -4.8650   35.8630    8.4980 O   0  0  0  0  0  0  0  0  0  0  0  0
   -3.8680   36.3190    7.5860 C   0  0  0  0  0  1  0  0  0  0  0  0
   -2.6470   33.4230   12.0960 O   0  0  0  0  0  0  0  0  0  0  0  0
   -2.6980   33.3390   13.5150 C   0  0  0  0  0  1  0  0  0  0  0  0
   -7.2150   36.7150   10.2800 O   0  0  0  0  0  0  0  0  0  0  0  0
   -7.6130   36.5360   11.6390 C   0  0  0  0  0  1  0  0  0  0  0  0
   -7.5250   41.1950    8.7980 O   0  0  0  0  0  0  0  0  0  0  0  0
   -6.9730   42.0910    7.8410 C   0  0  0  0  0  1  0  0  0  0  0  0
   -3.7210   33.4250    9.3900 O   0  0  0  0  0  0  0  0  0  0  0  0
   -2.4240   33.2540    8.8130 C   0  0  0  0  0  1  0  0  0  0  0  0
   -8.7470   38.9890    9.5450 O   0  0  0  0  0  0  0  0  0  0  0  0
   -9.3260   39.3870   10.7890 C   0  0  0  0  0  1  0  0  0  0  0  0
  1  7  1  6  0  0  0
  1  3  1  0  0  0  0
  1 19  1  0  0  0  0
  2  8  1  6  0  0  0
  2  1  1  0  0  0  0
  4  2  1  0  0  0  0
  5 11  1  0  0  0  0
  5  3  1  0  0  0  0
  6  4  1  0  0  0  0
  6 10  1  0  0  0  0
  9  5  2  0  0  0  0
 10  9  1  0  0  0  0
 12  6  2  0  0  0  0
 13 17  2  0  0  0  0
 13  9  1  0  0  0  0
 14 10  2  0  0  0  0
 14 25  1  0  0  0  0
 15 23  1  0  0  0  0
 15 11  2  0  0  0  0
 16 12  1  0  0  0  0
 16 18  2  0  0  0  0
 17 15  1  0  0  0  0
 18 14  1  0  0  0  0
 20 19  1  0  0  0  0
 21 13  1  0  0  0  0
 22 21  1  0  0  0  0
 23 24  1  0  0  0  0
 25 26  1  0  0  0  0
 27 16  1  0  0  0  0
 28 27  1  0  0  0  0
 29 17  1  0  0  0  0
 30 29  1  0  0  0  0
 31 18  1  0  0  0  0
 31 32  1  0  0  0  0
M  END
>  <MODEL>
19

>  <REMARK>
 VINA RESULT:    -5.629     36.192     40.284
 INTER + INTRA:          -7.738
 INTER:                  -7.532
 INTRA:                  -0.206
 UNBOUND:                 0.030
  7 active torsions:
  status: ('A' for Active; 'I' for Inactive)
    1  A    between atoms: O1_1  and  C1_8 
    2  A    between atoms: O2_2  and  C13_20 
    3  A    between atoms: O3_3  and  C14_21 
    4  A    between atoms: O4_4  and  C15_22 
    5  A    between atoms: O5_5  and  C16_23 
    6  A    between atoms: O6_6  and  C17_24 
    7  A    between atoms: O7_7  and  C18_25 

>  <TORSDO>
F 7

$$$$
./Esquisandrina.pdbqt
 OpenBabel10282519553D

 32 34  0  0  1  0  0  0  0  0999 V2000
  -36.7890   50.3000   -4.9030 C   0  0  1  0  0  0  0  0  0  0  0  0
  -35.5730   50.9850   -5.5870 C   0  0  2  0  0  3  0  0  0  0  0  0
  -36.8200   48.7650   -5.1260 C   0  0  0  0  0  2  0  0  0  0  0  0
  -34.2230   50.4720   -5.0440 C   0  0  0  0  0  2  0  0  0  0  0  0
  -36.0790   48.0070   -4.0720 C   0  0  0  0  0  0  0  0  0  0  0  0
  -33.7410   49.3170   -5.8690 C   0  0  0  0  0  0  0  0  0  0  0  0
  -36.9690   50.6870   -3.4360 C   0  0  0  0  0  1  0  0  0  0  0  0
  -35.6380   52.5090   -5.4440 C   0  0  0  0  0  1  0  0  0  0  0  0
  -34.7210   47.7000   -4.2350 C   0  0  0  0  0  0  0  0  0  0  0  0
  -34.0160   48.0050   -5.4770 C   0  0  0  0  0  0  0  0  0  0  0  0
  -36.7530   47.5930   -2.9260 C   0  0  0  0  0  3  0  0  0  0  0  0
  -33.0440   49.5750   -7.0540 C   0  0  0  0  0  3  0  0  0  0  0  0
  -34.0340   47.0660   -3.1910 C   0  0  0  0  0  0  0  0  0  0  0  0
  -33.6130   46.9470   -6.3100 C   0  0  0  0  0  0  0  0  0  0  0  0
  -36.0650   46.9320   -1.8990 C   0  0  0  0  0  0  0  0  0  0  0  0
  -32.6210   48.5180   -7.8540 C   0  0  0  0  0  0  0  0  0  0  0  0
  -34.6890   46.7010   -2.0080 C   0  0  0  0  0  0  0  0  0  0  0  0
  -32.9180   47.1880   -7.4950 C   0  0  0  0  0  0  0  0  0  0  0  0
  -37.9500   50.7050   -5.6250 O   0  0  0  0  0  0  0  0  0  0  0  0
  -38.3560   51.4970   -5.2370 H   0  0  0  0  0  0  0  0  0  0  0  0
  -32.6780   46.9610   -3.3280 O   0  0  0  0  0  0  0  0  0  0  0  0
  -31.9500   48.0780   -2.8230 C   0  0  0  0  0  1  0  0  0  0  0  0
  -36.8720   46.6130   -0.8570 O   0  0  0  0  0  0  0  0  0  0  0  0
  -37.3720   47.6740   -0.0520 C   0  0  0  0  0  1  0  0  0  0  0  0
  -33.8530   45.6790   -5.8580 O   0  0  0  0  0  0  0  0  0  0  0  0
  -34.9900   45.0620   -6.4610 C   0  0  0  0  0  1  0  0  0  0  0  0
  -31.9110   48.6260   -9.0060 O   0  0  0  0  0  0  0  0  0  0  0  0
  -30.5870   49.1330   -8.8920 C   0  0  0  0  0  1  0  0  0  0  0  0
  -34.0170   46.0600   -0.9950 O   0  0  0  0  0  0  0  0  0  0  0  0
  -33.7000   46.9470    0.0810 C   0  0  0  0  0  1  0  0  0  0  0  0
  -32.6040   46.1730   -8.3600 O   0  0  0  0  0  0  0  0  0  0  0  0
  -31.3560   45.5600   -8.0310 C   0  0  0  0  0  1  0  0  0  0  0  0
  1  7  1  1  0  0  0
  2  8  1  1  0  0  0
  2  4  1  0  0  0  0
  2  1  1  0  0  0  0
  3  1  1  0  0  0  0
  3  5  1  0  0  0  0
  5 11  1  0  0  0  0
  6 10  1  0  0  0  0
  6  4  1  0  0  0  0
  9  5  2  0  0  0  0
  9 13  1  0  0  0  0
 10  9  1  0  0  0  0
 11 15  2  0  0  0  0
 12  6  2  0  0  0  0
 13 17  2  0  0  0  0
 14 25  1  0  0  0  0
 14 10  2  0  0  0  0
 15 23  1  0  0  0  0
 16 18  2  0  0  0  0
 16 12  1  0  0  0  0
 17 15  1  0  0  0  0
 17 29  1  0  0  0  0
 18 14  1  0  0  0  0
 19 20  1  0  0  0  0
 19  1  1  0  0  0  0
 21 13  1  0  0  0  0
 21 22  1  0  0  0  0
 23 24  1  0  0  0  0
 26 25  1  0  0  0  0
 27 28  1  0  0  0  0
 27 16  1  0  0  0  0
 29 30  1  0  0  0  0
 31 32  1  0  0  0  0
 31 18  1  0  0  0  0
M  END
>  <MODEL>
20

>  <REMARK>
 VINA RESULT:    -5.542     18.938     22.059
 INTER + INTRA:          -7.618
 INTER:                  -7.237
 INTRA:                  -0.380
 UNBOUND:                 0.030
  7 active torsions:
  status: ('A' for Active; 'I' for Inactive)
    1  A    between atoms: O1_1  and  C1_8 
    2  A    between atoms: O2_2  and  C13_20 
    3  A    between atoms: O3_3  and  C14_21 
    4  A    between atoms: O4_4  and  C15_22 
    5  A    between atoms: O5_5  and  C16_23 
    6  A    between atoms: O6_6  and  C17_24 
    7  A    between atoms: O7_7  and  C18_25 

>  <TORSDO>
F 7

$$$$
