./Estricnina.pdbqt
 OpenBabel10282519553D

 26 32  0  0  1  0  0  0  0  0999 V2000
  -36.7320   22.6240  -17.2280 O   0  0  0  0  0  0  0  0  0  0  0  0
  -35.8010   24.2510  -13.0570 O   0  0  0  0  0  0  0  0  0  0  0  0
  -32.3490   20.4780  -17.6470 N   0  0  1  0  0  4  0  0  0  0  0  0
  -34.6620   22.6870  -14.2380 N   0  0  0  0  0  0  0  0  0  0  0  0
  -32.9480   21.5220  -15.5000 C   0  0  2  0  0  0  0  0  0  0  0  0
  -34.3770   22.1660  -15.6010 C   0  0  2  0  0  3  0  0  0  0  0  0
  -32.0520   21.7050  -16.7430 C   0  0  2  0  0  3  0  0  0  0  0  0
  -34.5010   23.3620  -16.5650 C   0  0  1  0  0  3  0  0  0  0  0  0
  -33.7800   23.0870  -17.8860 C   0  0  1  0  0  3  0  0  0  0  0  0
  -32.2840   22.9890  -17.5220 C   0  0  0  0  0  2  0  0  0  0  0  0
  -33.0710   19.9860  -15.3730 C   0  0  0  0  0  2  0  0  0  0  0  0
  -32.4090   22.0970  -14.2270 C   0  0  0  0  0  0  0  0  0  0  0  0
  -33.1410   19.4770  -16.8080 C   0  0  0  0  0  2  0  0  0  0  0  0
  -36.0000   23.6980  -16.6620 C   0  0  2  0  0  3  0  0  0  0  0  0
  -34.2190   21.8300  -18.5800 C   0  0  0  0  0  0  0  0  0  0  0  0
  -33.1180   20.8610  -18.9000 C   0  0  0  0  0  2  0  0  0  0  0  0
  -33.4500   22.7320  -13.5060 C   0  0  0  0  0  0  0  0  0  0  0  0
  -36.6320   23.8140  -15.2600 C   0  0  0  0  0  2  0  0  0  0  0  0
  -35.6880   23.6480  -14.0950 C   0  0  0  0  0  0  0  0  0  0  0  0
  -35.4770   21.5710  -18.9510 C   0  0  0  0  0  3  0  0  0  0  0  0
  -31.1370   22.0210  -13.6890 C   0  0  0  0  0  3  0  0  0  0  0  0
  -36.6280   22.4710  -18.6270 C   0  0  0  0  0  2  0  0  0  0  0  0
  -33.2310   23.2770  -12.2460 C   0  0  0  0  0  3  0  0  0  0  0  0
  -30.9060   22.5850  -12.4310 C   0  0  0  0  0  3  0  0  0  0  0  0
  -31.9410   23.1950  -11.7220 C   0  0  0  0  0  3  0  0  0  0  0  0
  -31.4380   20.0480  -17.9320 H   0  0  0  0  0  0  0  0  0  0  0  0
  1 14  1  0  0  0  0
  3 26  1  6  0  0  0
  3 13  1  0  0  0  0
  3  7  1  0  0  0  0
  4 19  1  0  0  0  0
  4 17  1  0  0  0  0
  5 11  1  1  0  0  0
  5 12  1  0  0  0  0
  6  5  1  0  0  0  0
  6  4  1  1  0  0  0
  7 10  1  6  0  0  0
  7  5  1  0  0  0  0
  8  6  1  0  0  0  0
  9 10  1  0  0  0  0
  9  8  1  0  0  0  0
 12 21  2  0  0  0  0
 12 17  1  0  0  0  0
 13 11  1  0  0  0  0
 14  8  1  0  0  0  0
 14 18  1  0  0  0  0
 15  9  1  0  0  0  0
 16 15  1  0  0  0  0
 16  3  1  0  0  0  0
 17 23  2  0  0  0  0
 18 19  1  0  0  0  0
 19  2  2  0  0  0  0
 20 22  1  0  0  0  0
 20 15  2  0  0  0  0
 21 24  1  0  0  0  0
 22  1  1  0  0  0  0
 23 25  1  0  0  0  0
 24 25  2  0  0  0  0
M  END
>  <MODEL>
1

>  <REMARK>
 VINA RESULT:    -8.642      0.000      0.000
 INTER + INTRA:          -8.642
 INTER:                  -8.642
 INTRA:                   0.000
 UNBOUND:                 0.000
  0 active torsions:
  status: ('A' for Active; 'I' for Inactive)

>  <TORSDO>
F 0

$$$$
./Estricnina.pdbqt
 OpenBabel10282519553D

 26 32  0  0  1  0  0  0  0  0999 V2000
  -32.3110   20.4070  -17.4870 O   0  0  0  0  0  0  0  0  0  0  0  0
  -31.2650   21.7460  -13.2430 O   0  0  0  0  0  0  0  0  0  0  0  0
  -36.7590   22.4520  -17.3090 N   0  0  1  0  0  4  0  0  0  0  0  0
  -32.9910   22.4300  -14.5420 N   0  0  0  0  0  0  0  0  0  0  0  0
  -35.2130   22.8300  -15.4310 C   0  0  2  0  0  0  0  0  0  0  0  0
  -33.8660   22.0650  -15.6880 C   0  0  2  0  0  3  0  0  0  0  0  0
  -36.4930   22.0650  -15.8290 C   0  0  2  0  0  3  0  0  0  0  0  0
  -33.9640   20.5270  -15.6950 C   0  0  1  0  0  3  0  0  0  0  0  0
  -35.1820   20.0520  -16.4900 C   0  0  1  0  0  3  0  0  0  0  0  0
  -36.4070   20.5530  -15.6970 C   0  0  0  0  0  2  0  0  0  0  0  0
  -35.2720   24.1010  -16.3090 C   0  0  0  0  0  2  0  0  0  0  0  0
  -35.1130   23.2110  -13.9860 C   0  0  0  0  0  0  0  0  0  0  0  0
  -35.8510   23.6350  -17.6390 C   0  0  0  0  0  2  0  0  0  0  0  0
  -32.5950   19.9980  -16.1610 C   0  0  2  0  0  3  0  0  0  0  0  0
  -35.2400   20.5700  -17.8980 C   0  0  0  0  0  0  0  0  0  0  0  0
  -36.5050   21.2940  -18.2600 C   0  0  0  0  0  2  0  0  0  0  0  0
  -33.7920   22.9980  -13.5220 C   0  0  0  0  0  0  0  0  0  0  0  0
  -31.4490   20.6590  -15.3690 C   0  0  0  0  0  2  0  0  0  0  0  0
  -31.8660   21.6170  -14.2800 C   0  0  0  0  0  0  0  0  0  0  0  0
  -34.2850   20.3800  -18.8140 C   0  0  0  0  0  3  0  0  0  0  0  0
  -36.0640   23.7680  -13.1500 C   0  0  0  0  0  3  0  0  0  0  0  0
  -32.9830   19.7050  -18.5110 C   0  0  0  0  0  2  0  0  0  0  0  0
  -33.4120   23.3530  -12.2330 C   0  0  0  0  0  3  0  0  0  0  0  0
  -35.6930   24.1070  -11.8460 C   0  0  0  0  0  3  0  0  0  0  0  0
  -34.3850   23.9070  -11.4020 C   0  0  0  0  0  3  0  0  0  0  0  0
  -37.7590   22.7460  -17.4000 H   0  0  0  0  0  0  0  0  0  0  0  0
  1 14  1  0  0  0  0
  3 26  1  6  0  0  0
  3  7  1  0  0  0  0
  4 19  1  0  0  0  0
  4 17  1  0  0  0  0
  5 11  1  6  0  0  0
  5 12  1  0  0  0  0
  6  5  1  0  0  0  0
  6  4  1  1  0  0  0
  7 10  1  6  0  0  0
  7  5  1  0  0  0  0
  8  6  1  0  0  0  0
  9 10  1  0  0  0  0
  9  8  1  0  0  0  0
 12 17  2  0  0  0  0
 12 21  1  0  0  0  0
 13  3  1  0  0  0  0
 13 11  1  0  0  0  0
 14  8  1  0  0  0  0
 14 18  1  0  0  0  0
 15  9  1  0  0  0  0
 16 15  1  0  0  0  0
 16  3  1  0  0  0  0
 17 23  1  0  0  0  0
 18 19  1  0  0  0  0
 19  2  2  0  0  0  0
 20 22  1  0  0  0  0
 20 15  2  0  0  0  0
 21 24  2  0  0  0  0
 22  1  1  0  0  0  0
 23 25  2  0  0  0  0
 24 25  1  0  0  0  0
M  END
>  <MODEL>
2

>  <REMARK>
 VINA RESULT:    -8.517      2.080      3.954
 INTER + INTRA:          -8.517
 INTER:                  -8.517
 INTRA:                   0.000
 UNBOUND:                 0.000
  0 active torsions:
  status: ('A' for Active; 'I' for Inactive)

>  <TORSDO>
F 0

$$$$
./Estricnina.pdbqt
 OpenBabel10282519553D

 26 32  0  0  1  0  0  0  0  0999 V2000
  -41.9260   28.7290    4.3860 O   0  0  0  0  0  0  0  0  0  0  0  0
  -44.2000   28.0840    0.4730 O   0  0  0  0  0  0  0  0  0  0  0  0
  -41.3320   33.5190    3.5480 N   0  0  1  0  0  4  0  0  0  0  0  0
  -43.6840   30.0430    1.4860 N   0  0  0  0  0  0  0  0  0  0  0  0
  -42.7270   32.2150    1.9940 C   0  0  2  0  0  0  0  0  0  0  0  0
  -42.7560   30.7090    2.4390 C   0  0  2  0  0  3  0  0  0  0  0  0
  -41.3570   32.9150    2.1170 C   0  0  2  0  0  3  0  0  0  0  0  0
  -41.4130   29.9610    2.3420 C   0  0  1  0  0  3  0  0  0  0  0  0
  -40.2620   30.8120    2.8830 C   0  0  1  0  0  3  0  0  0  0  0  0
  -40.1520   32.0100    1.9180 C   0  0  0  0  0  2  0  0  0  0  0  0
  -43.6390   33.0540    2.9180 C   0  0  0  0  0  2  0  0  0  0  0  0
  -43.3040   32.1690    0.6120 C   0  0  0  0  0  0  0  0  0  0  0  0
  -42.7560   33.4410    4.0980 C   0  0  0  0  0  2  0  0  0  0  0  0
  -41.6210   28.5890    3.0090 C   0  0  2  0  0  3  0  0  0  0  0  0
  -40.4670   31.3050    4.2860 C   0  0  0  0  0  0  0  0  0  0  0  0
  -40.3600   32.7930    4.4610 C   0  0  0  0  0  2  0  0  0  0  0  0
  -43.8850   30.8990    0.3750 C   0  0  0  0  0  0  0  0  0  0  0  0
  -42.8900   27.8990    2.4690 C   0  0  0  0  0  2  0  0  0  0  0  0
  -43.6290   28.6360    1.3790 C   0  0  0  0  0  0  0  0  0  0  0  0
  -40.6790   30.5140    5.3430 C   0  0  0  0  0  3  0  0  0  0  0  0
  -43.3910   33.1630   -0.3450 C   0  0  0  0  0  3  0  0  0  0  0  0
  -40.8380   29.0290    5.2350 C   0  0  0  0  0  2  0  0  0  0  0  0
  -44.5650   30.6220   -0.8060 C   0  0  0  0  0  3  0  0  0  0  0  0
  -44.0550   32.8840   -1.5430 C   0  0  0  0  0  3  0  0  0  0  0  0
  -44.6370   31.6350   -1.7610 C   0  0  0  0  0  3  0  0  0  0  0  0
  -41.0410   34.5220    3.4780 H   0  0  0  0  0  0  0  0  0  0  0  0
  1 22  1  0  0  0  0
  2 19  2  0  0  0  0
  3 26  1  6  0  0  0
  3 13  1  0  0  0  0
  3 16  1  0  0  0  0
  5  7  1  0  0  0  0
  5  6  1  0  0  0  0
  5 11  1  1  0  0  0
  6  4  1  6  0  0  0
  7 10  1  1  0  0  0
  7  3  1  0  0  0  0
  8  6  1  0  0  0  0
  8  9  1  0  0  0  0
  8 14  1  0  0  0  0
  9 15  1  0  0  0  0
 10  9  1  0  0  0  0
 11 13  1  0  0  0  0
 12  5  1  0  0  0  0
 14  1  1  0  0  0  0
 15 16  1  0  0  0  0
 15 20  2  0  0  0  0
 17 12  1  0  0  0  0
 17  4  1  0  0  0  0
 18 14  1  0  0  0  0
 19  4  1  0  0  0  0
 19 18  1  0  0  0  0
 21 12  2  0  0  0  0
 22 20  1  0  0  0  0
 23 17  2  0  0  0  0
 24 21  1  0  0  0  0
 25 24  2  0  0  0  0
 25 23  1  0  0  0  0
M  END
>  <MODEL>
3

>  <REMARK>
 VINA RESULT:    -8.514     20.291     22.309
 INTER + INTRA:          -8.514
 INTER:                  -8.514
 INTRA:                   0.000
 UNBOUND:                 0.000
  0 active torsions:
  status: ('A' for Active; 'I' for Inactive)

>  <TORSDO>
F 0

$$$$
./Estricnina.pdbqt
 OpenBabel10282519553D

 26 32  0  0  1  0  0  0  0  0999 V2000
   -4.8040   38.5520    6.8180 O   0  0  0  0  0  0  0  0  0  0  0  0
   -8.3290   40.7260    8.7550 O   0  0  0  0  0  0  0  0  0  0  0  0
   -5.0030   34.8460   10.0150 N   0  0  1  0  0  4  0  0  0  0  0  0
   -7.6430   38.5920    9.0910 N   0  0  0  0  0  0  0  0  0  0  0  0
   -6.7620   36.5660   10.0950 C   0  0  2  0  0  0  0  0  0  0  0  0
   -6.4850   37.6620    9.0050 C   0  0  2  0  0  3  0  0  0  0  0  0
   -5.5160   36.0520   10.8470 C   0  0  2  0  0  3  0  0  0  0  0  0
   -5.2190   38.5130    9.2230 C   0  0  1  0  0  3  0  0  0  0  0  0
   -4.0300   37.6430    9.6350 C   0  0  1  0  0  3  0  0  0  0  0  0
   -4.4020   37.0720   11.0190 C   0  0  0  0  0  2  0  0  0  0  0  0
   -7.3240   35.2910    9.4270 C   0  0  0  0  0  2  0  0  0  0  0  0
   -7.8150   37.2010   10.9510 C   0  0  0  0  0  0  0  0  0  0  0  0
   -6.0970   34.4900    9.0100 C   0  0  0  0  0  2  0  0  0  0  0  0
   -5.0350   39.3660    7.9550 C   0  0  2  0  0  3  0  0  0  0  0  0
   -3.7280   36.5200    8.6860 C   0  0  0  0  0  0  0  0  0  0  0  0
   -3.6950   35.1530    9.3050 C   0  0  0  0  0  2  0  0  0  0  0  0
   -8.3260   38.3540   10.3090 C   0  0  0  0  0  0  0  0  0  0  0  0
   -6.3470   40.0820    7.5760 C   0  0  0  0  0  2  0  0  0  0  0  0
   -7.5070   39.8760    8.5180 C   0  0  0  0  0  0  0  0  0  0  0  0
   -3.4510   36.6810    7.3880 C   0  0  0  0  0  3  0  0  0  0  0  0
   -8.3470   36.7810   12.1570 C   0  0  0  0  0  3  0  0  0  0  0  0
   -3.5070   38.0080    6.6970 C   0  0  0  0  0  2  0  0  0  0  0  0
   -9.3770   39.0830   10.8560 C   0  0  0  0  0  3  0  0  0  0  0  0
   -9.3890   37.5210   12.7220 C   0  0  0  0  0  3  0  0  0  0  0  0
   -9.8970   38.6480   12.0750 C   0  0  0  0  0  3  0  0  0  0  0  0
   -4.8500   34.0380   10.6630 H   0  0  0  0  0  0  0  0  0  0  0  0
  1 14  1  0  0  0  0
  3 26  1  1  0  0  0
  3  7  1  0  0  0  0
  4 17  1  0  0  0  0
  5 11  1  6  0  0  0
  5  7  1  0  0  0  0
  5 12  1  0  0  0  0
  6  4  1  1  0  0  0
  6  8  1  0  0  0  0
  6  5  1  0  0  0  0
  7 10  1  6  0  0  0
  8  9  1  0  0  0  0
  9 10  1  0  0  0  0
 12 21  1  0  0  0  0
 13 11  1  0  0  0  0
 13  3  1  0  0  0  0
 14  8  1  0  0  0  0
 15 16  1  0  0  0  0
 15  9  1  0  0  0  0
 16  3  1  0  0  0  0
 17 23  1  0  0  0  0
 17 12  2  0  0  0  0
 18 14  1  0  0  0  0
 18 19  1  0  0  0  0
 19  2  2  0  0  0  0
 19  4  1  0  0  0  0
 20 15  2  0  0  0  0
 21 24  2  0  0  0  0
 22  1  1  0  0  0  0
 22 20  1  0  0  0  0
 23 25  2  0  0  0  0
 25 24  1  0  0  0  0
M  END
>  <MODEL>
4

>  <REMARK>
 VINA RESULT:    -8.194     39.048     40.514
 INTER + INTRA:          -8.194
 INTER:                  -8.194
 INTRA:                   0.000
 UNBOUND:                 0.000
  0 active torsions:
  status: ('A' for Active; 'I' for Inactive)

>  <TORSDO>
F 0

$$$$
./Estricnina.pdbqt
 OpenBabel10282519553D

 26 32  0  0  1  0  0  0  0  0999 V2000
  -15.0670   16.2210  -13.1840 O   0  0  0  0  0  0  0  0  0  0  0  0
  -15.3380   18.7110   -9.3590 O   0  0  0  0  0  0  0  0  0  0  0  0
  -12.6630   19.7350  -15.6050 N   0  0  1  0  0  4  0  0  0  0  0  0
  -14.0580   19.0900  -11.1900 N   0  0  0  0  0  0  0  0  0  0  0  0
  -13.1170   20.0570  -13.2070 C   0  0  2  0  0  0  0  0  0  0  0  0
  -13.9150   18.8260  -12.6460 C   0  0  2  0  0  3  0  0  0  0  0  0
  -13.5440   20.5380  -14.6100 C   0  0  2  0  0  3  0  0  0  0  0  0
  -15.3400   18.6470  -13.2030 C   0  0  1  0  0  3  0  0  0  0  0  0
  -15.3730   18.8500  -14.7200 C   0  0  1  0  0  3  0  0  0  0  0  0
  -15.0140   20.3330  -14.9410 C   0  0  0  0  0  2  0  0  0  0  0  0
  -11.6310   19.6770  -13.4000 C   0  0  0  0  0  2  0  0  0  0  0  0
  -13.2470   21.0700  -12.1110 C   0  0  0  0  0  0  0  0  0  0  0  0
  -11.5580   19.0620  -14.7920 C   0  0  0  0  0  2  0  0  0  0  0  0
  -15.8510   17.2910  -12.6840 C   0  0  2  0  0  3  0  0  0  0  0  0
  -14.4190   17.9760  -15.4800 C   0  0  0  0  0  0  0  0  0  0  0  0
  -13.4660   18.7060  -16.3820 C   0  0  0  0  0  2  0  0  0  0  0  0
  -13.7620   20.4540  -10.9450 C   0  0  0  0  0  0  0  0  0  0  0  0
  -15.6340   17.1650  -11.1630 C   0  0  0  0  0  2  0  0  0  0  0  0
  -15.0440   18.3730  -10.4780 C   0  0  0  0  0  0  0  0  0  0  0  0
  -14.4130   16.6400  -15.4310 C   0  0  0  0  0  3  0  0  0  0  0  0
  -12.8840   22.4040  -12.0920 C   0  0  0  0  0  3  0  0  0  0  0  0
  -15.3060   15.8500  -14.5250 C   0  0  0  0  0  2  0  0  0  0  0  0
  -13.9010   21.1590   -9.7550 C   0  0  0  0  0  3  0  0  0  0  0  0
  -13.0410   23.1240  -10.9040 C   0  0  0  0  0  3  0  0  0  0  0  0
  -13.5350   22.5050   -9.7550 C   0  0  0  0  0  3  0  0  0  0  0  0
  -12.2350   20.4070  -16.2840 H   0  0  0  0  0  0  0  0  0  0  0  0
  1 14  1  0  0  0  0
  3 26  1  6  0  0  0
  3 13  1  0  0  0  0
  3  7  1  0  0  0  0
  4 17  1  0  0  0  0
  4 19  1  0  0  0  0
  5 11  1  6  0  0  0
  5  6  1  0  0  0  0
  5 12  1  0  0  0  0
  6  4  1  1  0  0  0
  7 10  1  6  0  0  0
  7  5  1  0  0  0  0
  8 14  1  0  0  0  0
  8  6  1  0  0  0  0
  9  8  1  0  0  0  0
 10  9  1  0  0  0  0
 12 21  2  0  0  0  0
 12 17  1  0  0  0  0
 13 11  1  0  0  0  0
 14 18  1  0  0  0  0
 15 20  2  0  0  0  0
 15  9  1  0  0  0  0
 16  3  1  0  0  0  0
 16 15  1  0  0  0  0
 17 23  2  0  0  0  0
 18 19  1  0  0  0  0
 19  2  2  0  0  0  0
 20 22  1  0  0  0  0
 21 24  1  0  0  0  0
 22  1  1  0  0  0  0
 23 25  1  0  0  0  0
 24 25  2  0  0  0  0
M  END
>  <MODEL>
5

>  <REMARK>
 VINA RESULT:    -8.182     19.254     20.424
 INTER + INTRA:          -8.182
 INTER:                  -8.182
 INTRA:                   0.000
 UNBOUND:                 0.000
  0 active torsions:
  status: ('A' for Active; 'I' for Inactive)

>  <TORSDO>
F 0

$$$$
./Estricnina.pdbqt
 OpenBabel10282519553D

 26 32  0  0  1  0  0  0  0  0999 V2000
  -40.2070   32.8890    1.4380 O   0  0  0  0  0  0  0  0  0  0  0  0
  -44.7300   33.1100    0.8050 O   0  0  0  0  0  0  0  0  0  0  0  0
  -40.6710   30.8680    5.8760 N   0  0  1  0  0  4  0  0  0  0  0  0
  -43.5920   31.9640    2.3940 N   0  0  0  0  0  0  0  0  0  0  0  0
  -42.6960   31.2060    4.5180 C   0  0  2  0  0  0  0  0  0  0  0  0
  -42.3160   31.8860    3.1550 C   0  0  2  0  0  3  0  0  0  0  0  0
  -41.9480   31.7430    5.7560 C   0  0  2  0  0  3  0  0  0  0  0  0
  -41.7760   33.3250    3.2570 C   0  0  1  0  0  3  0  0  0  0  0  0
  -40.7600   33.4580    4.3940 C   0  0  1  0  0  3  0  0  0  0  0  0
  -41.5620   33.2120    5.6880 C   0  0  0  0  0  2  0  0  0  0  0  0
  -42.3040   29.7110    4.4880 C   0  0  0  0  0  2  0  0  0  0  0  0
  -44.1870   31.3410    4.5580 C   0  0  0  0  0  0  0  0  0  0  0  0
  -40.8480   29.6760    4.9370 C   0  0  0  0  0  2  0  0  0  0  0  0
  -41.2830   33.7140    1.8510 C   0  0  2  0  0  3  0  0  0  0  0  0
  -39.6150   32.4910    4.3130 C   0  0  0  0  0  0  0  0  0  0  0  0
  -39.4100   31.6420    5.5340 C   0  0  0  0  0  2  0  0  0  0  0  0
  -44.6680   31.7470    3.2890 C   0  0  0  0  0  0  0  0  0  0  0  0
  -42.3530   33.4030    0.7860 C   0  0  0  0  0  2  0  0  0  0  0  0
  -43.6620   32.8580    1.3030 C   0  0  0  0  0  0  0  0  0  0  0  0
  -38.7790   32.3930    3.2740 C   0  0  0  0  0  3  0  0  0  0  0  0
  -45.0740   31.0680    5.5840 C   0  0  0  0  0  3  0  0  0  0  0  0
  -38.9490   33.1780    2.0100 C   0  0  0  0  0  2  0  0  0  0  0  0
  -46.0300   31.8650    3.0350 C   0  0  0  0  0  3  0  0  0  0  0  0
  -46.4440   31.2060    5.3400 C   0  0  0  0  0  3  0  0  0  0  0  0
  -46.9090   31.5910    4.0820 C   0  0  0  0  0  3  0  0  0  0  0  0
  -40.5960   30.5240    6.8620 H   0  0  0  0  0  0  0  0  0  0  0  0
  1 14  1  0  0  0  0
  1 22  1  0  0  0  0
  2 19  2  0  0  0  0
  3 26  1  1  0  0  0
  4 17  1  0  0  0  0
  5 11  1  6  0  0  0
  5 12  1  0  0  0  0
  5  7  1  0  0  0  0
  6  4  1  6  0  0  0
  6  8  1  0  0  0  0
  6  5  1  0  0  0  0
  7 10  1  6  0  0  0
  7  3  1  0  0  0  0
  8  9  1  0  0  0  0
  9 10  1  0  0  0  0
 11 13  1  0  0  0  0
 12 21  1  0  0  0  0
 13  3  1  0  0  0  0
 14  8  1  0  0  0  0
 15  9  1  0  0  0  0
 15 16  1  0  0  0  0
 16  3  1  0  0  0  0
 17 12  2  0  0  0  0
 18 19  1  0  0  0  0
 18 14  1  0  0  0  0
 19  4  1  0  0  0  0
 20 15  2  0  0  0  0
 22 20  1  0  0  0  0
 23 17  1  0  0  0  0
 23 25  2  0  0  0  0
 24 21  2  0  0  0  0
 25 24  1  0  0  0  0
M  END
>  <MODEL>
6

>  <REMARK>
 VINA RESULT:    -8.085     21.651     23.763
 INTER + INTRA:          -8.085
 INTER:                  -8.085
 INTRA:                   0.000
 UNBOUND:                 0.000
  0 active torsions:
  status: ('A' for Active; 'I' for Inactive)

>  <TORSDO>
F 0

$$$$
./Estricnina.pdbqt
 OpenBabel10282519553D

 26 32  0  0  1  0  0  0  0  0999 V2000
  -39.1240   20.3850  -17.9970 O   0  0  0  0  0  0  0  0  0  0  0  0
  -35.0460   18.3380  -17.7090 O   0  0  0  0  0  0  0  0  0  0  0  0
  -37.8450   23.9380  -14.8760 N   0  0  1  0  0  4  0  0  0  0  0  0
  -35.6290   20.4070  -16.9920 N   0  0  0  0  0  0  0  0  0  0  0  0
  -36.1290   22.3250  -15.5930 C   0  0  2  0  0  0  0  0  0  0  0  0
  -36.7630   21.2680  -16.5650 C   0  0  2  0  0  3  0  0  0  0  0  0
  -37.0060   22.7260  -14.3880 C   0  0  2  0  0  3  0  0  0  0  0  0
  -37.8140   20.3330  -15.9370 C   0  0  1  0  0  3  0  0  0  0  0  0
  -38.7840   21.1080  -15.0430 C   0  0  1  0  0  3  0  0  0  0  0  0
  -37.9280   21.6330  -13.8720 C   0  0  0  0  0  2  0  0  0  0  0  0
  -35.9160   23.6630  -16.3370 C   0  0  0  0  0  2  0  0  0  0  0  0
  -34.8040   21.7150  -15.2510 C   0  0  0  0  0  0  0  0  0  0  0  0
  -37.2380   24.4080  -16.1970 C   0  0  0  0  0  2  0  0  0  0  0  0
  -38.4420   19.5330  -17.0930 C   0  0  2  0  0  3  0  0  0  0  0  0
  -39.4710   22.2550  -15.7260 C   0  0  0  0  0  0  0  0  0  0  0  0
  -39.3130   23.5870  -15.0500 C   0  0  0  0  0  2  0  0  0  0  0  0
  -34.5370   20.6270  -16.1160 C   0  0  0  0  0  0  0  0  0  0  0  0
  -37.3520   18.9170  -17.9940 C   0  0  0  0  0  2  0  0  0  0  0  0
  -35.9270   19.1470  -17.5560 C   0  0  0  0  0  0  0  0  0  0  0  0
  -40.2210   22.1410  -16.8270 C   0  0  0  0  0  3  0  0  0  0  0  0
  -33.8640   22.1070  -14.3150 C   0  0  0  0  0  3  0  0  0  0  0  0
  -40.3870   20.8550  -17.5750 C   0  0  0  0  0  2  0  0  0  0  0  0
  -33.3310   19.9380  -16.0640 C   0  0  0  0  0  3  0  0  0  0  0  0
  -32.6570   21.4060  -14.2430 C   0  0  0  0  0  3  0  0  0  0  0  0
  -32.3970   20.3440  -15.1110 C   0  0  0  0  0  3  0  0  0  0  0  0
  -37.7660   24.7020  -14.1660 H   0  0  0  0  0  0  0  0  0  0  0  0
  1 22  1  0  0  0  0
  1 14  1  0  0  0  0
  2 19  2  0  0  0  0
  3  7  1  0  0  0  0
  3 26  1  1  0  0  0
  4 17  1  0  0  0  0
  5 11  1  6  0  0  0
  5 12  1  0  0  0  0
  5  7  1  0  0  0  0
  6  4  1  1  0  0  0
  6  8  1  0  0  0  0
  6  5  1  0  0  0  0
  7 10  1  6  0  0  0
  8  9  1  0  0  0  0
  9 10  1  0  0  0  0
 11 13  1  0  0  0  0
 12 21  1  0  0  0  0
 13  3  1  0  0  0  0
 14  8  1  0  0  0  0
 15 16  1  0  0  0  0
 15  9  1  0  0  0  0
 16  3  1  0  0  0  0
 17 23  1  0  0  0  0
 17 12  2  0  0  0  0
 18 19  1  0  0  0  0
 18 14  1  0  0  0  0
 19  4  1  0  0  0  0
 20 15  2  0  0  0  0
 21 24  2  0  0  0  0
 22 20  1  0  0  0  0
 23 25  2  0  0  0  0
 25 24  1  0  0  0  0
M  END
>  <MODEL>
7

>  <REMARK>
 VINA RESULT:    -8.022      2.784      5.138
 INTER + INTRA:          -8.022
 INTER:                  -8.022
 INTRA:                   0.000
 UNBOUND:                 0.000
  0 active torsions:
  status: ('A' for Active; 'I' for Inactive)

>  <TORSDO>
F 0

$$$$
./Estricnina.pdbqt
 OpenBabel10282519553D

 26 32  0  0  1  0  0  0  0  0999 V2000
   -8.1740   39.5950   10.3850 O   0  0  0  0  0  0  0  0  0  0  0  0
   -5.5430   40.1560    6.6880 O   0  0  0  0  0  0  0  0  0  0  0  0
   -6.2350   35.2170   11.4150 N   0  0  1  0  0  4  0  0  0  0  0  0
   -5.3290   38.6200    8.3400 N   0  0  0  0  0  0  0  0  0  0  0  0
   -5.2600   36.5340    9.5780 C   0  0  2  0  0  0  0  0  0  0  0  0
   -6.0500   37.8810    9.4100 C   0  0  2  0  0  3  0  0  0  0  0  0
   -6.1280   35.2910    9.8680 C   0  0  2  0  0  3  0  0  0  0  0  0
   -7.5110   37.7410    8.9420 C   0  0  1  0  0  3  0  0  0  0  0  0
   -8.2290   36.6160    9.6890 C   0  0  1  0  0  3  0  0  0  0  0  0
   -7.5180   35.3190    9.2540 C   0  0  0  0  0  2  0  0  0  0  0  0
   -4.3350   36.6170   10.8130 C   0  0  0  0  0  2  0  0  0  0  0  0
   -4.4380   36.4680    8.3280 C   0  0  0  0  0  0  0  0  0  0  0  0
   -5.2060   36.1900   11.9880 C   0  0  0  0  0  2  0  0  0  0  0  0
   -8.1440   39.1420    9.0430 C   0  0  2  0  0  3  0  0  0  0  0  0
   -8.1870   36.7430   11.1850 C   0  0  0  0  0  0  0  0  0  0  0  0
   -7.6310   35.5520   11.9100 C   0  0  0  0  0  2  0  0  0  0  0  0
   -4.4760   37.7170    7.6600 C   0  0  0  0  0  0  0  0  0  0  0  0
   -7.2510   40.2010    8.3660 C   0  0  0  0  0  2  0  0  0  0  0  0
   -6.0020   39.6820    7.6970 C   0  0  0  0  0  0  0  0  0  0  0  0
   -8.6460   37.7970   11.8670 C   0  0  0  0  0  3  0  0  0  0  0  0
   -3.6560   35.4390    7.8350 C   0  0  0  0  0  3  0  0  0  0  0  0
   -9.1740   39.0330   11.2080 C   0  0  0  0  0  2  0  0  0  0  0  0
   -3.7250   37.9480    6.5130 C   0  0  0  0  0  3  0  0  0  0  0  0
   -2.9160   35.6580    6.6700 C   0  0  0  0  0  3  0  0  0  0  0  0
   -2.9470   36.8970    6.0280 C   0  0  0  0  0  3  0  0  0  0  0  0
   -5.9970   34.2430   11.7170 H   0  0  0  0  0  0  0  0  0  0  0  0
  1 22  1  0  0  0  0
  2 19  2  0  0  0  0
  3 26  1  1  0  0  0
  3 16  1  0  0  0  0
  3 13  1  0  0  0  0
  5  7  1  0  0  0  0
  5 11  1  1  0  0  0
  6  4  1  6  0  0  0
  6  5  1  0  0  0  0
  7 10  1  6  0  0  0
  7  3  1  0  0  0  0
  8 14  1  0  0  0  0
  8  6  1  0  0  0  0
  8  9  1  0  0  0  0
  9 15  1  0  0  0  0
 10  9  1  0  0  0  0
 11 13  1  0  0  0  0
 12  5  1  0  0  0  0
 14  1  1  0  0  0  0
 15 20  2  0  0  0  0
 15 16  1  0  0  0  0
 17 12  2  0  0  0  0
 17  4  1  0  0  0  0
 18 14  1  0  0  0  0
 19  4  1  0  0  0  0
 19 18  1  0  0  0  0
 21 12  1  0  0  0  0
 22 20  1  0  0  0  0
 23 17  1  0  0  0  0
 24 21  2  0  0  0  0
 25 23  2  0  0  0  0
 25 24  1  0  0  0  0
M  END
>  <MODEL>
8

>  <REMARK>
 VINA RESULT:    -7.992     38.989     40.464
 INTER + INTRA:          -7.992
 INTER:                  -7.992
 INTRA:                   0.000
 UNBOUND:                 0.000
  0 active torsions:
  status: ('A' for Active; 'I' for Inactive)

>  <TORSDO>
F 0

$$$$
./Estricnina.pdbqt
 OpenBabel10282519553D

 26 32  0  0  1  0  0  0  0  0999 V2000
  -39.3480   32.7240    3.7700 O   0  0  0  0  0  0  0  0  0  0  0  0
  -40.2120   28.9790    6.2470 O   0  0  0  0  0  0  0  0  0  0  0  0
  -43.6840   32.5340    1.5010 N   0  0  1  0  0  4  0  0  0  0  0  0
  -41.6630   30.2140    5.0210 N   0  0  0  0  0  0  0  0  0  0  0  0
  -43.2380   30.9400    3.3230 C   0  0  2  0  0  0  0  0  0  0  0  0
  -41.7880   31.1650    3.8840 C   0  0  2  0  0  3  0  0  0  0  0  0
  -43.3750   31.0400    1.7890 C   0  0  2  0  0  3  0  0  0  0  0  0
  -40.6400   30.8400    2.9100 C   0  0  1  0  0  3  0  0  0  0  0  0
  -40.9250   31.3930    1.5110 C   0  0  1  0  0  3  0  0  0  0  0  0
  -42.1490   30.6040    1.0030 C   0  0  0  0  0  2  0  0  0  0  0  0
  -44.1790   32.0540    3.8370 C   0  0  0  0  0  2  0  0  0  0  0  0
  -43.6300   29.6240    3.9210 C   0  0  0  0  0  0  0  0  0  0  0  0
  -44.0260   33.1930    2.8360 C   0  0  0  0  0  2  0  0  0  0  0  0
  -39.3400   31.3200    3.5820 C   0  0  2  0  0  3  0  0  0  0  0  0
  -41.2180   32.8650    1.4780 C   0  0  0  0  0  0  0  0  0  0  0  0
  -42.5190   33.2420    0.8300 C   0  0  0  0  0  2  0  0  0  0  0  0
  -42.7070   29.2600    4.9310 C   0  0  0  0  0  0  0  0  0  0  0  0
  -39.2450   30.8020    5.0310 C   0  0  0  0  0  2  0  0  0  0  0  0
  -40.3670   29.9010    5.4850 C   0  0  0  0  0  0  0  0  0  0  0  0
  -40.3890   33.8120    1.9300 C   0  0  0  0  0  3  0  0  0  0  0  0
  -44.7360   28.8320    3.6700 C   0  0  0  0  0  3  0  0  0  0  0  0
  -39.0970   33.5060    2.6220 C   0  0  0  0  0  2  0  0  0  0  0  0
  -42.8900   28.1180    5.7030 C   0  0  0  0  0  3  0  0  0  0  0  0
  -44.9140   27.6710    4.4280 C   0  0  0  0  0  3  0  0  0  0  0  0
  -44.0070   27.3280    5.4310 C   0  0  0  0  0  3  0  0  0  0  0  0
  -44.5150   32.5840    0.8670 H   0  0  0  0  0  0  0  0  0  0  0  0
  3 26  1  6  0  0  0
  3  7  1  0  0  0  0
  3 13  1  0  0  0  0
  4 19  1  0  0  0  0
  5 11  1  1  0  0  0
  5  6  1  0  0  0  0
  5 12  1  0  0  0  0
  6  4  1  1  0  0  0
  7 10  1  6  0  0  0
  7  5  1  0  0  0  0
  8 14  1  0  0  0  0
  8  6  1  0  0  0  0
  9  8  1  0  0  0  0
 10  9  1  0  0  0  0
 12 17  1  0  0  0  0
 13 11  1  0  0  0  0
 14  1  1  0  0  0  0
 14 18  1  0  0  0  0
 15  9  1  0  0  0  0
 15 20  2  0  0  0  0
 16 15  1  0  0  0  0
 16  3  1  0  0  0  0
 17  4  1  0  0  0  0
 17 23  2  0  0  0  0
 18 19  1  0  0  0  0
 19  2  2  0  0  0  0
 20 22  1  0  0  0  0
 21 12  2  0  0  0  0
 21 24  1  0  0  0  0
 22  1  1  0  0  0  0
 24 25  2  0  0  0  0
 25 23  1  0  0  0  0
M  END
>  <MODEL>
9

>  <REMARK>
 VINA RESULT:    -7.976     21.007     22.980
 INTER + INTRA:          -7.976
 INTER:                  -7.976
 INTRA:                   0.000
 UNBOUND:                 0.000
  0 active torsions:
  status: ('A' for Active; 'I' for Inactive)

>  <TORSDO>
F 0

$$$$
./Estricnina.pdbqt
 OpenBabel10282519553D

 26 32  0  0  1  0  0  0  0  0999 V2000
  -43.5970   32.3080    5.5690 O   0  0  0  0  0  0  0  0  0  0  0  0
  -46.5960   29.8680    3.1280 O   0  0  0  0  0  0  0  0  0  0  0  0
  -40.5080   32.7620    1.7940 N   0  0  1  0  0  4  0  0  0  0  0  0
  -44.8260   31.0670    2.3780 N   0  0  0  0  0  0  0  0  0  0  0  0
  -42.6970   31.7050    1.4040 C   0  0  2  0  0  0  0  0  0  0  0  0
  -43.5050   31.6420    2.7490 C   0  0  2  0  0  3  0  0  0  0  0  0
  -41.1900   31.3930    1.5240 C   0  0  2  0  0  3  0  0  0  0  0  0
  -42.9160   30.7260    3.8380 C   0  0  1  0  0  3  0  0  0  0  0  0
  -41.4020   30.9100    3.9590 C   0  0  1  0  0  3  0  0  0  0  0  0
  -40.8220   30.4070    2.6210 C   0  0  0  0  0  2  0  0  0  0  0  0
  -42.7170   33.1450    0.8440 C   0  0  0  0  0  2  0  0  0  0  0  0
  -43.4730   30.7950    0.5020 C   0  0  0  0  0  0  0  0  0  0  0  0
  -41.5460   33.8480    1.5200 C   0  0  0  0  0  2  0  0  0  0  0  0
  -43.7390   30.9720    5.1160 C   0  0  2  0  0  3  0  0  0  0  0  0
  -40.9700   32.3270    4.2010 C   0  0  0  0  0  0  0  0  0  0  0  0
  -39.9760   32.8680    3.2140 C   0  0  0  0  0  2  0  0  0  0  0  0
  -44.7210   30.4820    1.0930 C   0  0  0  0  0  0  0  0  0  0  0  0
  -45.2500   30.8900    4.8240 C   0  0  0  0  0  2  0  0  0  0  0  0
  -45.6310   30.5330    3.4080 C   0  0  0  0  0  0  0  0  0  0  0  0
  -41.3710   33.0740    5.2350 C   0  0  0  0  0  3  0  0  0  0  0  0
  -43.1640   30.3280   -0.7620 C   0  0  0  0  0  3  0  0  0  0  0  0
  -42.3890   32.6140    6.2320 C   0  0  0  0  0  2  0  0  0  0  0  0
  -45.6690   29.7190    0.4210 C   0  0  0  0  0  3  0  0  0  0  0  0
  -44.1050   29.5420   -1.4350 C   0  0  0  0  0  3  0  0  0  0  0  0
  -45.3380   29.2520   -0.8520 C   0  0  0  0  0  3  0  0  0  0  0  0
  -39.7080   32.8700    1.1290 H   0  0  0  0  0  0  0  0  0  0  0  0
  1 22  1  0  0  0  0
  2 19  2  0  0  0  0
  3 26  1  6  0  0  0
  3 16  1  0  0  0  0
  4 19  1  0  0  0  0
  5 11  1  6  0  0  0
  5  7  1  0  0  0  0
  5  6  1  0  0  0  0
  6  4  1  6  0  0  0
  6  8  1  0  0  0  0
  7  3  1  0  0  0  0
  7 10  1  1  0  0  0
  8  9  1  0  0  0  0
  8 14  1  0  0  0  0
  9 15  1  0  0  0  0
 10  9  1  0  0  0  0
 11 13  1  0  0  0  0
 12 17  1  0  0  0  0
 12  5  1  0  0  0  0
 13  3  1  0  0  0  0
 14  1  1  0  0  0  0
 15 20  2  0  0  0  0
 16 15  1  0  0  0  0
 17  4  1  0  0  0  0
 18 14  1  0  0  0  0
 19 18  1  0  0  0  0
 20 22  1  0  0  0  0
 21 12  2  0  0  0  0
 23 17  2  0  0  0  0
 24 25  2  0  0  0  0
 24 21  1  0  0  0  0
 25 23  1  0  0  0  0
M  END
>  <MODEL>
10

>  <REMARK>
 VINA RESULT:    -7.728     19.848     22.886
 INTER + INTRA:          -7.728
 INTER:                  -7.728
 INTRA:                   0.000
 UNBOUND:                 0.000
  0 active torsions:
  status: ('A' for Active; 'I' for Inactive)

>  <TORSDO>
F 0

$$$$
./Estricnina.pdbqt
 OpenBabel10282519553D

 26 32  0  0  1  0  0  0  0  0999 V2000
  -24.0160   21.3920   -4.8690 O   0  0  0  0  0  0  0  0  0  0  0  0
  -23.9650   18.4680   -8.3830 O   0  0  0  0  0  0  0  0  0  0  0  0
  -26.5760   24.7420   -7.3620 N   0  0  1  0  0  4  0  0  0  0  0  0
  -25.2300   20.3310   -8.1290 N   0  0  0  0  0  0  0  0  0  0  0  0
  -26.1870   22.5440   -8.4000 C   0  0  2  0  0  0  0  0  0  0  0  0
  -25.3290   21.6450   -7.4400 C   0  0  2  0  0  3  0  0  0  0  0  0
  -25.7620   24.0260   -8.4740 C   0  0  2  0  0  3  0  0  0  0  0  0
  -23.8860   22.1240   -7.1940 C   0  0  1  0  0  3  0  0  0  0  0  0
  -23.8350   23.6330   -6.9450 C   0  0  1  0  0  3  0  0  0  0  0  0
  -24.2770   24.2800   -8.2730 C   0  0  0  0  0  2  0  0  0  0  0  0
  -27.6440   22.6180   -7.8900 C   0  0  0  0  0  2  0  0  0  0  0  0
  -26.1380   21.7940   -9.6960 C   0  0  0  0  0  0  0  0  0  0  0  0
  -27.6540   23.7680   -6.8910 C   0  0  0  0  0  2  0  0  0  0  0  0
  -23.3060   21.2280   -6.0840 C   0  0  2  0  0  3  0  0  0  0  0  0
  -24.7220   24.1040   -5.8290 C   0  0  0  0  0  0  0  0  0  0  0  0
  -25.6990   25.1810   -6.2020 C   0  0  0  0  0  2  0  0  0  0  0  0
  -25.6100   20.4980   -9.4830 C   0  0  0  0  0  0  0  0  0  0  0  0
  -23.5440   19.7370   -6.3970 C   0  0  0  0  0  2  0  0  0  0  0  0
  -24.2170   19.4380   -7.7140 C   0  0  0  0  0  0  0  0  0  0  0  0
  -24.6500   23.6640   -4.5680 C   0  0  0  0  0  3  0  0  0  0  0  0
  -26.5790   22.1680  -10.9530 C   0  0  0  0  0  3  0  0  0  0  0  0
  -23.7310   22.5640   -4.1360 C   0  0  0  0  0  2  0  0  0  0  0  0
  -25.5350   19.5670  -10.5130 C   0  0  0  0  0  3  0  0  0  0  0  0
  -26.4870   21.2440  -11.9970 C   0  0  0  0  0  3  0  0  0  0  0  0
  -25.9800   19.9640  -11.7740 C   0  0  0  0  0  3  0  0  0  0  0  0
  -27.0300   25.5880   -7.7780 H   0  0  0  0  0  0  0  0  0  0  0  0
  1 22  1  0  0  0  0
  2 19  2  0  0  0  0
  3 26  1  6  0  0  0
  3 13  1  0  0  0  0
  3 16  1  0  0  0  0
  4 19  1  0  0  0  0
  5 11  1  1  0  0  0
  5  6  1  0  0  0  0
  6  4  1  6  0  0  0
  6  8  1  0  0  0  0
  7  5  1  0  0  0  0
  7 10  1  1  0  0  0
  7  3  1  0  0  0  0
  8  9  1  0  0  0  0
  8 14  1  0  0  0  0
  9 15  1  0  0  0  0
 10  9  1  0  0  0  0
 11 13  1  0  0  0  0
 12 17  1  0  0  0  0
 12  5  1  0  0  0  0
 14  1  1  0  0  0  0
 15 20  2  0  0  0  0
 16 15  1  0  0  0  0
 17  4  1  0  0  0  0
 18 14  1  0  0  0  0
 19 18  1  0  0  0  0
 20 22  1  0  0  0  0
 21 12  2  0  0  0  0
 23 17  2  0  0  0  0
 24 25  2  0  0  0  0
 24 21  1  0  0  0  0
 25 23  1  0  0  0  0
M  END
>  <MODEL>
11

>  <REMARK>
 VINA RESULT:    -7.686      9.580     12.991
 INTER + INTRA:          -7.686
 INTER:                  -7.686
 INTRA:                   0.000
 UNBOUND:                 0.000
  0 active torsions:
  status: ('A' for Active; 'I' for Inactive)

>  <TORSDO>
F 0

$$$$
./Estricnina.pdbqt
 OpenBabel10282519553D

 26 32  0  0  1  0  0  0  0  0999 V2000
  -43.9490   30.7760   -1.1310 O   0  0  0  0  0  0  0  0  0  0  0  0
  -43.6880   26.7310    0.9830 O   0  0  0  0  0  0  0  0  0  0  0  0
  -41.7130   33.1260    2.5400 N   0  0  1  0  0  4  0  0  0  0  0  0
  -42.6140   28.6560    1.5050 N   0  0  0  0  0  0  0  0  0  0  0  0
  -41.8770   30.6710    2.6390 C   0  0  2  0  0  0  0  0  0  0  0  0
  -42.6490   30.1380    1.3800 C   0  0  2  0  0  3  0  0  0  0  0  0
  -42.4450   31.9630    3.2640 C   0  0  2  0  0  3  0  0  0  0  0  0
  -44.1340   30.5370    1.2920 C   0  0  1  0  0  3  0  0  0  0  0  0
  -44.3340   32.0130    1.6420 C   0  0  1  0  0  3  0  0  0  0  0  0
  -43.9490   32.1350    3.1300 C   0  0  0  0  0  2  0  0  0  0  0  0
  -40.4370   31.0720    2.2420 C   0  0  0  0  0  2  0  0  0  0  0  0
  -41.8430   29.4780    3.5440 C   0  0  0  0  0  0  0  0  0  0  0  0
  -40.5470   32.5150    1.7640 C   0  0  0  0  0  2  0  0  0  0  0  0
  -44.6310   30.0900   -0.0950 C   0  0  2  0  0  3  0  0  0  0  0  0
  -43.5060   32.9590    0.8220 C   0  0  0  0  0  0  0  0  0  0  0  0
  -42.6370   33.8950    1.6120 C   0  0  0  0  0  2  0  0  0  0  0  0
  -42.2420   28.3220    2.8310 C   0  0  0  0  0  0  0  0  0  0  0  0
  -44.2460   28.6230   -0.3730 C   0  0  0  0  0  2  0  0  0  0  0  0
  -43.5370   27.9030    0.7470 C   0  0  0  0  0  0  0  0  0  0  0  0
  -43.5430   33.0360   -0.5130 C   0  0  0  0  0  3  0  0  0  0  0  0
  -41.4310   29.3770    4.8600 C   0  0  0  0  0  3  0  0  0  0  0  0
  -44.3540   32.1090   -1.3640 C   0  0  0  0  0  2  0  0  0  0  0  0
  -42.2180   27.0630    3.4200 C   0  0  0  0  0  3  0  0  0  0  0  0
  -41.4250   28.1160    5.4650 C   0  0  0  0  0  3  0  0  0  0  0  0
  -41.8050   26.9800    4.7500 C   0  0  0  0  0  3  0  0  0  0  0  0
  -41.3410   33.7840    3.2640 H   0  0  0  0  0  0  0  0  0  0  0  0
  1 14  1  0  0  0  0
  3  7  1  0  0  0  0
  3 26  1  1  0  0  0
  4 17  1  0  0  0  0
  5 11  1  6  0  0  0
  5  7  1  0  0  0  0
  5 12  1  0  0  0  0
  6  4  1  1  0  0  0
  6  5  1  0  0  0  0
  7 10  1  6  0  0  0
  8  6  1  0  0  0  0
  8  9  1  0  0  0  0
  9 10  1  0  0  0  0
 12 21  1  0  0  0  0
 13 11  1  0  0  0  0
 13  3  1  0  0  0  0
 14  8  1  0  0  0  0
 15 16  1  0  0  0  0
 15  9  1  0  0  0  0
 16  3  1  0  0  0  0
 17 23  1  0  0  0  0
 17 12  2  0  0  0  0
 18 14  1  0  0  0  0
 18 19  1  0  0  0  0
 19  2  2  0  0  0  0
 19  4  1  0  0  0  0
 20 15  2  0  0  0  0
 21 24  2  0  0  0  0
 22  1  1  0  0  0  0
 22 20  1  0  0  0  0
 23 25  2  0  0  0  0
 25 24  1  0  0  0  0
M  END
>  <MODEL>
12

>  <REMARK>
 VINA RESULT:    -7.634     19.863     21.616
 INTER + INTRA:          -7.634
 INTER:                  -7.634
 INTRA:                   0.000
 UNBOUND:                 0.000
  0 active torsions:
  status: ('A' for Active; 'I' for Inactive)

>  <TORSDO>
F 0

$$$$
./Estricnina.pdbqt
 OpenBabel10282519553D

 26 32  0  0  1  0  0  0  0  0999 V2000
  -45.3830   30.1080    1.4390 O   0  0  0  0  0  0  0  0  0  0  0  0
  -42.4650   33.2470   -0.1540 O   0  0  0  0  0  0  0  0  0  0  0  0
  -42.5520   29.0660    5.2990 N   0  0  1  0  0  4  0  0  0  0  0  0
  -42.4860   32.2610    1.8860 N   0  0  0  0  0  0  0  0  0  0  0  0
  -41.9000   30.9310    3.8290 C   0  0  2  0  0  0  0  0  0  0  0  0
  -42.9300   31.0660    2.6510 C   0  0  2  0  0  3  0  0  0  0  0  0
  -41.5220   29.4850    4.2140 C   0  0  2  0  0  3  0  0  0  0  0  0
  -42.9610   29.8910    1.6560 C   0  0  1  0  0  3  0  0  0  0  0  0
  -42.9270   28.5450    2.3830 C   0  0  1  0  0  3  0  0  0  0  0  0
  -41.5460   28.4860    3.0680 C   0  0  0  0  0  2  0  0  0  0  0  0
  -42.5120   31.4960    5.1310 C   0  0  0  0  0  2  0  0  0  0  0  0
  -40.7620   31.7960    3.3820 C   0  0  0  0  0  0  0  0  0  0  0  0
  -43.2830   30.3320    5.7430 C   0  0  0  0  0  2  0  0  0  0  0  0
  -44.1610   30.1330    0.7220 C   0  0  2  0  0  3  0  0  0  0  0  0
  -44.0110   28.3700    3.4070 C   0  0  0  0  0  0  0  0  0  0  0  0
  -43.5340   28.0260    4.7880 C   0  0  0  0  0  2  0  0  0  0  0  0
  -41.1610   32.5810    2.2730 C   0  0  0  0  0  0  0  0  0  0  0  0
  -44.1450   31.5710    0.1650 C   0  0  0  0  0  2  0  0  0  0  0  0
  -42.9670   32.4220    0.5680 C   0  0  0  0  0  0  0  0  0  0  0  0
  -45.3190   28.4520    3.1450 C   0  0  0  0  0  3  0  0  0  0  0  0
  -39.5010   31.9530    3.9290 C   0  0  0  0  0  3  0  0  0  0  0  0
  -45.8640   28.8310    1.8020 C   0  0  0  0  0  2  0  0  0  0  0  0
  -40.3140   33.5330    1.7170 C   0  0  0  0  0  3  0  0  0  0  0  0
  -38.6380   32.8940    3.3610 C   0  0  0  0  0  3  0  0  0  0  0  0
  -39.0450   33.6740    2.2780 C   0  0  0  0  0  3  0  0  0  0  0  0
  -42.0300   28.6640    6.1120 H   0  0  0  0  0  0  0  0  0  0  0  0
  1 22  1  0  0  0  0
  2 19  2  0  0  0  0
  3 13  1  0  0  0  0
  3 26  1  1  0  0  0
  4 17  1  0  0  0  0
  5  7  1  0  0  0  0
  5 11  1  1  0  0  0
  6  4  1  6  0  0  0
  6  5  1  0  0  0  0
  7 10  1  6  0  0  0
  7  3  1  0  0  0  0
  8  9  1  0  0  0  0
  8  6  1  0  0  0  0
  9 10  1  0  0  0  0
  9 15  1  0  0  0  0
 11 13  1  0  0  0  0
 12  5  1  0  0  0  0
 12 21  1  0  0  0  0
 14  1  1  0  0  0  0
 14  8  1  0  0  0  0
 15 16  1  0  0  0  0
 16  3  1  0  0  0  0
 17 12  2  0  0  0  0
 18 19  1  0  0  0  0
 18 14  1  0  0  0  0
 19  4  1  0  0  0  0
 20 15  2  0  0  0  0
 22 20  1  0  0  0  0
 23 17  1  0  0  0  0
 23 25  2  0  0  0  0
 24 21  2  0  0  0  0
 25 24  1  0  0  0  0
M  END
>  <MODEL>
13

>  <REMARK>
 VINA RESULT:    -7.609     21.174     22.357
 INTER + INTRA:          -7.609
 INTER:                  -7.609
 INTRA:                   0.000
 UNBOUND:                 0.000
  0 active torsions:
  status: ('A' for Active; 'I' for Inactive)

>  <TORSDO>
F 0

$$$$
./Estricnina.pdbqt
 OpenBabel10282519553D

 26 32  0  0  1  0  0  0  0  0999 V2000
  -42.8350   31.9440    0.3490 O   0  0  0  0  0  0  0  0  0  0  0  0
  -43.8780   27.6020    1.3310 O   0  0  0  0  0  0  0  0  0  0  0  0
  -40.0810   32.4590    4.3670 N   0  0  1  0  0  4  0  0  0  0  0  0
  -42.2790   28.9060    2.2690 N   0  0  0  0  0  0  0  0  0  0  0  0
  -40.9900   30.2330    3.8390 C   0  0  2  0  0  0  0  0  0  0  0  0
  -41.8570   30.3070    2.5320 C   0  0  2  0  0  3  0  0  0  0  0  0
  -41.1520   31.4240    4.8080 C   0  0  2  0  0  3  0  0  0  0  0  0
  -43.1460   31.1450    2.6340 C   0  0  1  0  0  3  0  0  0  0  0  0
  -42.8940   32.4660    3.3630 C   0  0  1  0  0  3  0  0  0  0  0  0
  -42.5270   32.0710    4.8080 C   0  0  0  0  0  2  0  0  0  0  0  0
  -39.4880   30.2710    3.4780 C   0  0  0  0  0  2  0  0  0  0  0  0
  -41.3460   28.8920    4.4030 C   0  0  0  0  0  0  0  0  0  0  0  0
  -39.1390   31.7520    3.3950 C   0  0  0  0  0  2  0  0  0  0  0  0
  -43.7200   31.2490    1.2090 C   0  0  2  0  0  3  0  0  0  0  0  0
  -41.7950   33.2990    2.7690 C   0  0  0  0  0  0  0  0  0  0  0  0
  -40.7020   33.6870    3.7220 C   0  0  0  0  0  2  0  0  0  0  0  0
  -42.0620   28.1390    3.4400 C   0  0  0  0  0  0  0  0  0  0  0  0
  -43.7950   29.8610    0.5410 C   0  0  0  0  0  2  0  0  0  0  0  0
  -43.3690   28.6930    1.3960 C   0  0  0  0  0  0  0  0  0  0  0  0
  -41.7730   33.7310    1.5040 C   0  0  0  0  0  3  0  0  0  0  0  0
  -41.0190   28.3290    5.6230 C   0  0  0  0  0  3  0  0  0  0  0  0
  -42.8060   33.3480    0.4900 C   0  0  0  0  0  2  0  0  0  0  0  0
  -42.4390   26.8230    3.6830 C   0  0  0  0  0  3  0  0  0  0  0  0
  -41.4140   27.0130    5.8820 C   0  0  0  0  0  3  0  0  0  0  0  0
  -42.1050   26.2740    4.9210 C   0  0  0  0  0  3  0  0  0  0  0  0
  -39.5450   32.7610    5.2130 H   0  0  0  0  0  0  0  0  0  0  0  0
  1 22  1  0  0  0  0
  1 14  1  0  0  0  0
  2 19  2  0  0  0  0
  3  7  1  0  0  0  0
  3 26  1  1  0  0  0
  4 17  1  0  0  0  0
  5 11  1  6  0  0  0
  5 12  1  0  0  0  0
  5  7  1  0  0  0  0
  6  4  1  1  0  0  0
  6  8  1  0  0  0  0
  6  5  1  0  0  0  0
  7 10  1  6  0  0  0
  8  9  1  0  0  0  0
  9 10  1  0  0  0  0
 12 21  1  0  0  0  0
 13 11  1  0  0  0  0
 13  3  1  0  0  0  0
 14  8  1  0  0  0  0
 15  9  1  0  0  0  0
 15 16  1  0  0  0  0
 16  3  1  0  0  0  0
 17 23  1  0  0  0  0
 17 12  2  0  0  0  0
 18 14  1  0  0  0  0
 18 19  1  0  0  0  0
 19  4  1  0  0  0  0
 20 15  2  0  0  0  0
 21 24  2  0  0  0  0
 22 20  1  0  0  0  0
 23 25  2  0  0  0  0
 25 24  1  0  0  0  0
M  END
>  <MODEL>
14

>  <REMARK>
 VINA RESULT:    -7.507     20.735     22.339
 INTER + INTRA:          -7.507
 INTER:                  -7.507
 INTRA:                   0.000
 UNBOUND:                 0.000
  0 active torsions:
  status: ('A' for Active; 'I' for Inactive)

>  <TORSDO>
F 0

$$$$
./Estricnina.pdbqt
 OpenBabel10282519553D

 26 32  0  0  1  0  0  0  0  0999 V2000
  -19.3790   -0.9880   11.6370 O   0  0  0  0  0  0  0  0  0  0  0  0
  -21.5170    3.0370   11.9920 O   0  0  0  0  0  0  0  0  0  0  0  0
  -22.0170   -2.9960   15.2430 N   0  0  1  0  0  4  0  0  0  0  0  0
  -22.1130    1.0490   12.9010 N   0  0  0  0  0  0  0  0  0  0  0  0
  -22.6030   -0.7320   14.4750 C   0  0  2  0  0  0  0  0  0  0  0  0
  -21.6160   -0.2830   13.3390 C   0  0  2  0  0  3  0  0  0  0  0  0
  -21.9560   -1.4980   15.6480 C   0  0  2  0  0  3  0  0  0  0  0  0
  -20.1510   -0.0860   13.7700 C   0  0  1  0  0  3  0  0  0  0  0  0
  -19.6790   -1.2280   14.6730 C   0  0  1  0  0  3  0  0  0  0  0  0
  -20.5210   -1.1050   15.9590 C   0  0  0  0  0  2  0  0  0  0  0  0
  -23.6270   -1.7440   13.9120 C   0  0  0  0  0  2  0  0  0  0  0  0
  -23.2960    0.5440   14.8430 C   0  0  0  0  0  0  0  0  0  0  0  0
  -22.9490   -3.1030   14.0370 C   0  0  0  0  0  2  0  0  0  0  0  0
  -19.3380    0.1480   12.4830 C   0  0  2  0  0  3  0  0  0  0  0  0
  -19.8540   -2.5960   14.0790 C   0  0  0  0  0  0  0  0  0  0  0  0
  -20.6440   -3.5590   14.9170 C   0  0  0  0  0  2  0  0  0  0  0  0
  -23.0140    1.5410   13.8780 C   0  0  0  0  0  0  0  0  0  0  0  0
  -19.9980    1.2280   11.6030 C   0  0  0  0  0  2  0  0  0  0  0  0
  -21.2340    1.8790   12.1720 C   0  0  0  0  0  0  0  0  0  0  0  0
  -19.3200   -2.9910   12.9180 C   0  0  0  0  0  3  0  0  0  0  0  0
  -24.1630    0.8110   15.8870 C   0  0  0  0  0  3  0  0  0  0  0  0
  -18.5580   -2.0730   12.0140 C   0  0  0  0  0  2  0  0  0  0  0  0
  -23.6040    2.7980   13.9420 C   0  0  0  0  0  3  0  0  0  0  0  0
  -24.7430    2.0800   15.9680 C   0  0  0  0  0  3  0  0  0  0  0  0
  -24.4710    3.0510   15.0040 C   0  0  0  0  0  3  0  0  0  0  0  0
  -22.4200   -3.5390   16.0420 H   0  0  0  0  0  0  0  0  0  0  0  0
  1 22  1  0  0  0  0
  1 14  1  0  0  0  0
  2 19  2  0  0  0  0
  3  7  1  0  0  0  0
  3 26  1  1  0  0  0
  4 17  1  0  0  0  0
  5 11  1  6  0  0  0
  5 12  1  0  0  0  0
  5  7  1  0  0  0  0
  6  4  1  1  0  0  0
  6  8  1  0  0  0  0
  6  5  1  0  0  0  0
  7 10  1  6  0  0  0
  8  9  1  0  0  0  0
  9 10  1  0  0  0  0
 11 13  1  0  0  0  0
 12 21  1  0  0  0  0
 13  3  1  0  0  0  0
 14  8  1  0  0  0  0
 15  9  1  0  0  0  0
 15 16  1  0  0  0  0
 16  3  1  0  0  0  0
 17 23  1  0  0  0  0
 17 12  2  0  0  0  0
 18 19  1  0  0  0  0
 18 14  1  0  0  0  0
 19  4  1  0  0  0  0
 20 15  2  0  0  0  0
 21 24  2  0  0  0  0
 22 20  1  0  0  0  0
 23 25  2  0  0  0  0
 25 24  1  0  0  0  0
M  END
>  <MODEL>
15

>  <REMARK>
 VINA RESULT:    -7.431     36.920     39.450
 INTER + INTRA:          -7.431
 INTER:                  -7.431
 INTRA:                   0.000
 UNBOUND:                 0.000
  0 active torsions:
  status: ('A' for Active; 'I' for Inactive)

>  <TORSDO>
F 0

$$$$
./Estricnina.pdbqt
 OpenBabel10282519553D

 26 32  0  0  1  0  0  0  0  0999 V2000
  -44.7530   30.2780    6.5380 O   0  0  0  0  0  0  0  0  0  0  0  0
  -41.7350   33.7030    6.2830 O   0  0  0  0  0  0  0  0  0  0  0  0
  -43.4520   28.4670    2.1760 N   0  0  1  0  0  4  0  0  0  0  0  0
  -41.8620   31.8480    4.9870 N   0  0  0  0  0  0  0  0  0  0  0  0
  -42.1590   30.3440    3.1060 C   0  0  2  0  0  0  0  0  0  0  0  0
  -42.7650   30.7760    4.4890 C   0  0  2  0  0  3  0  0  0  0  0  0
  -43.1910   29.9890    2.0140 C   0  0  2  0  0  3  0  0  0  0  0  0
  -44.1800   31.3800    4.4360 C   0  0  1  0  0  3  0  0  0  0  0  0
  -45.0950   30.5730    3.5110 C   0  0  1  0  0  3  0  0  0  0  0  0
  -44.5040   30.7510    2.0980 C   0  0  0  0  0  2  0  0  0  0  0  0
  -41.3520   29.0360    3.2700 C   0  0  0  0  0  2  0  0  0  0  0  0
  -41.2350   31.4760    2.7750 C   0  0  0  0  0  0  0  0  0  0  0  0
  -42.3750   27.9180    3.1100 C   0  0  0  0  0  2  0  0  0  0  0  0
  -44.6500   31.5360    5.8940 C   0  0  2  0  0  3  0  0  0  0  0  0
  -45.1790   29.1130    3.8480 C   0  0  0  0  0  0  0  0  0  0  0  0
  -44.8400   28.1780    2.7230 C   0  0  0  0  0  2  0  0  0  0  0  0
  -41.0620   32.3030    3.9110 C   0  0  0  0  0  0  0  0  0  0  0  0
  -43.5780   32.2450    6.7460 C   0  0  0  0  0  2  0  0  0  0  0  0
  -42.3420   32.6970    6.0090 C   0  0  0  0  0  0  0  0  0  0  0  0
  -45.5730   28.6310    5.0320 C   0  0  0  0  0  3  0  0  0  0  0  0
  -40.5380   31.7380    1.6100 C   0  0  0  0  0  3  0  0  0  0  0  0
  -45.8860   29.5030    6.2080 C   0  0  0  0  0  2  0  0  0  0  0  0
  -40.1840   33.3810    3.8950 C   0  0  0  0  0  3  0  0  0  0  0  0
  -39.6690   32.8330    1.5810 C   0  0  0  0  0  3  0  0  0  0  0  0
  -39.4930   33.6340    2.7100 C   0  0  0  0  0  3  0  0  0  0  0  0
  -43.3610   28.0140    1.2380 H   0  0  0  0  0  0  0  0  0  0  0  0
  3 26  1  6  0  0  0
  3 16  1  0  0  0  0
  3 13  1  0  0  0  0
  4 19  1  0  0  0  0
  5 11  1  1  0  0  0
  5  6  1  0  0  0  0
  6  4  1  6  0  0  0
  7 10  1  1  0  0  0
  7  3  1  0  0  0  0
  7  5  1  0  0  0  0
  8  6  1  0  0  0  0
  8 14  1  0  0  0  0
  9 15  1  0  0  0  0
  9  8  1  0  0  0  0
 10  9  1  0  0  0  0
 12  5  1  0  0  0  0
 12 17  1  0  0  0  0
 13 11  1  0  0  0  0
 14  1  1  0  0  0  0
 14 18  1  0  0  0  0
 15 20  2  0  0  0  0
 16 15  1  0  0  0  0
 17  4  1  0  0  0  0
 19  2  2  0  0  0  0
 19 18  1  0  0  0  0
 20 22  1  0  0  0  0
 21 12  2  0  0  0  0
 22  1  1  0  0  0  0
 23 17  2  0  0  0  0
 24 21  1  0  0  0  0
 24 25  2  0  0  0  0
 25 23  1  0  0  0  0
M  END
>  <MODEL>
16

>  <REMARK>
 VINA RESULT:    -7.302     21.478     23.529
 INTER + INTRA:          -7.302
 INTER:                  -7.302
 INTRA:                   0.000
 UNBOUND:                 0.000
  0 active torsions:
  status: ('A' for Active; 'I' for Inactive)

>  <TORSDO>
F 0

$$$$
./Estricnina.pdbqt
 OpenBabel10282519553D

 26 32  0  0  1  0  0  0  0  0999 V2000
  -41.2970   33.2740    1.1210 O   0  0  0  0  0  0  0  0  0  0  0  0
  -44.8290   32.0470   -1.5110 O   0  0  0  0  0  0  0  0  0  0  0  0
  -42.1870   29.7470    4.4010 N   0  0  1  0  0  4  0  0  0  0  0  0
  -43.8930   30.8980    0.2030 N   0  0  0  0  0  0  0  0  0  0  0  0
  -43.5220   29.7970    2.3330 C   0  0  2  0  0  0  0  0  0  0  0  0
  -43.0860   31.0180    1.4470 C   0  0  2  0  0  3  0  0  0  0  0  0
  -43.6010   30.0750    3.8490 C   0  0  2  0  0  3  0  0  0  0  0  0
  -43.3880   32.4090    2.0360 C   0  0  1  0  0  3  0  0  0  0  0  0
  -43.0210   32.4760    3.5200 C   0  0  1  0  0  3  0  0  0  0  0  0
  -43.9840   31.4980    4.2230 C   0  0  0  0  0  2  0  0  0  0  0  0
  -42.4670   28.6710    2.2340 C   0  0  0  0  0  2  0  0  0  0  0  0
  -44.8010   29.3550    1.6920 C   0  0  0  0  0  0  0  0  0  0  0  0
  -41.4300   29.0070    3.3000 C   0  0  0  0  0  2  0  0  0  0  0  0
  -42.7050   33.4370    1.1150 C   0  0  2  0  0  3  0  0  0  0  0  0
  -41.6000   32.0960    3.8210 C   0  0  0  0  0  0  0  0  0  0  0  0
  -41.4340   30.9960    4.8300 C   0  0  0  0  0  2  0  0  0  0  0  0
  -44.9560   29.9910    0.4370 C   0  0  0  0  0  0  0  0  0  0  0  0
  -43.0530   33.1720   -0.3630 C   0  0  0  0  0  2  0  0  0  0  0  0
  -44.0150   32.0380   -0.6210 C   0  0  0  0  0  0  0  0  0  0  0  0
  -40.5280   32.6970    3.2960 C   0  0  0  0  0  3  0  0  0  0  0  0
  -45.7290   28.4210    2.1180 C   0  0  0  0  0  3  0  0  0  0  0  0
  -40.6190   33.7710    2.2550 C   0  0  0  0  0  2  0  0  0  0  0  0
  -46.0230   29.6900   -0.4020 C   0  0  0  0  0  3  0  0  0  0  0  0
  -46.8150   28.1290    1.2880 C   0  0  0  0  0  3  0  0  0  0  0  0
  -46.9510   28.7500    0.0470 C   0  0  0  0  0  3  0  0  0  0  0  0
  -42.2940   29.1190    5.2320 H   0  0  0  0  0  0  0  0  0  0  0  0
  1 22  1  0  0  0  0
  2 19  2  0  0  0  0
  3 16  1  0  0  0  0
  3 26  1  1  0  0  0
  4 17  1  0  0  0  0
  5 11  1  6  0  0  0
  5  7  1  0  0  0  0
  6  4  1  6  0  0  0
  6  8  1  0  0  0  0
  6  5  1  0  0  0  0
  7 10  1  6  0  0  0
  7  3  1  0  0  0  0
  8  9  1  0  0  0  0
  9 15  1  0  0  0  0
  9 10  1  0  0  0  0
 11 13  1  0  0  0  0
 12 21  1  0  0  0  0
 12  5  1  0  0  0  0
 13  3  1  0  0  0  0
 14  1  1  0  0  0  0
 14  8  1  0  0  0  0
 15 16  1  0  0  0  0
 17 12  2  0  0  0  0
 18 14  1  0  0  0  0
 19 18  1  0  0  0  0
 19  4  1  0  0  0  0
 20 15  2  0  0  0  0
 22 20  1  0  0  0  0
 23 25  2  0  0  0  0
 23 17  1  0  0  0  0
 24 21  2  0  0  0  0
 25 24  1  0  0  0  0
M  END
>  <MODEL>
17

>  <REMARK>
 VINA RESULT:    -7.253     20.768     22.368
 INTER + INTRA:          -7.253
 INTER:                  -7.253
 INTRA:                   0.000
 UNBOUND:                 0.000
  0 active torsions:
  status: ('A' for Active; 'I' for Inactive)

>  <TORSDO>
F 0

$$$$
./Estricnina.pdbqt
 OpenBabel10282519553D

 26 32  0  0  1  0  0  0  0  0999 V2000
  -41.6620   33.0610    3.0350 O   0  0  0  0  0  0  0  0  0  0  0  0
  -43.7690   33.1400   -1.0220 O   0  0  0  0  0  0  0  0  0  0  0  0
  -43.5640   28.7070    4.2250 N   0  0  1  0  0  4  0  0  0  0  0  0
  -43.5240   31.3890    0.3960 N   0  0  0  0  0  0  0  0  0  0  0  0
  -43.9650   29.5880    1.9620 C   0  0  2  0  0  0  0  0  0  0  0  0
  -43.2890   30.9980    1.8120 C   0  0  2  0  0  3  0  0  0  0  0  0
  -44.6580   29.3290    3.3160 C   0  0  2  0  0  3  0  0  0  0  0  0
  -43.8860   32.1190    2.6830 C   0  0  1  0  0  3  0  0  0  0  0  0
  -44.1450   31.6330    4.1110 C   0  0  1  0  0  3  0  0  0  0  0  0
  -45.2460   30.5610    3.9840 C   0  0  0  0  0  2  0  0  0  0  0  0
  -42.8900   28.4800    1.8950 C   0  0  0  0  0  2  0  0  0  0  0  0
  -44.8530   29.5110    0.7580 C   0  0  0  0  0  0  0  0  0  0  0  0
  -42.3870   28.3320    3.3260 C   0  0  0  0  0  2  0  0  0  0  0  0
  -42.9580   33.3380    2.5340 C   0  0  2  0  0  3  0  0  0  0  0  0
  -42.9410   31.0490    4.7920 C   0  0  0  0  0  0  0  0  0  0  0  0
  -43.1230   29.6570    5.3250 C   0  0  0  0  0  2  0  0  0  0  0  0
  -44.5340   30.5550   -0.1440 C   0  0  0  0  0  0  0  0  0  0  0  0
  -42.6720   33.6350    1.0480 C   0  0  0  0  0  2  0  0  0  0  0  0
  -43.3780   32.7510    0.0500 C   0  0  0  0  0  0  0  0  0  0  0  0
  -41.7880   31.6990    4.9800 C   0  0  0  0  0  3  0  0  0  0  0  0
  -45.8130   28.5730    0.4250 C   0  0  0  0  0  3  0  0  0  0  0  0
  -41.5240   33.0700    4.4400 C   0  0  0  0  0  2  0  0  0  0  0  0
  -45.1580   30.6590   -1.3820 C   0  0  0  0  0  3  0  0  0  0  0  0
  -46.4590   28.6840   -0.8100 C   0  0  0  0  0  3  0  0  0  0  0  0
  -46.1270   29.7070   -1.6980 C   0  0  0  0  0  3  0  0  0  0  0  0
  -43.9530   27.8410    4.6660 H   0  0  0  0  0  0  0  0  0  0  0  0
  1 22  1  0  0  0  0
  2 19  2  0  0  0  0
  3 26  1  1  0  0  0
  3 16  1  0  0  0  0
  5 11  1  6  0  0  0
  5  7  1  0  0  0  0
  6  4  1  6  0  0  0
  6  5  1  0  0  0  0
  6  8  1  0  0  0  0
  7 10  1  1  0  0  0
  7  3  1  0  0  0  0
  8  9  1  0  0  0  0
  9 15  1  0  0  0  0
 10  9  1  0  0  0  0
 11 13  1  0  0  0  0
 12  5  1  0  0  0  0
 13  3  1  0  0  0  0
 14  8  1  0  0  0  0
 14  1  1  0  0  0  0
 15 20  2  0  0  0  0
 15 16  1  0  0  0  0
 17  4  1  0  0  0  0
 17 12  2  0  0  0  0
 18 14  1  0  0  0  0
 19  4  1  0  0  0  0
 19 18  1  0  0  0  0
 21 12  1  0  0  0  0
 22 20  1  0  0  0  0
 23 17  1  0  0  0  0
 24 21  2  0  0  0  0
 25 23  2  0  0  0  0
 25 24  1  0  0  0  0
M  END
>  <MODEL>
18

>  <REMARK>
 VINA RESULT:    -7.222     20.357     22.627
 INTER + INTRA:          -7.222
 INTER:                  -7.222
 INTRA:                   0.000
 UNBOUND:                 0.000
  0 active torsions:
  status: ('A' for Active; 'I' for Inactive)

>  <TORSDO>
F 0

$$$$
./Estricnina.pdbqt
 OpenBabel10282519553D

 26 32  0  0  1  0  0  0  0  0999 V2000
  -31.0190   48.0090   -7.6990 O   0  0  0  0  0  0  0  0  0  0  0  0
  -29.3970   45.1230   -4.5460 O   0  0  0  0  0  0  0  0  0  0  0  0
  -35.6350   47.5280   -6.1310 N   0  0  1  0  0  4  0  0  0  0  0  0
  -31.4450   46.0870   -4.6410 N   0  0  0  0  0  0  0  0  0  0  0  0
  -33.8360   46.4470   -4.8460 C   0  0  2  0  0  0  0  0  0  0  0  0
  -32.4520   46.7100   -5.5400 C   0  0  2  0  0  3  0  0  0  0  0  0
  -35.0090   46.1460   -5.8020 C   0  0  2  0  0  3  0  0  0  0  0  0
  -32.2680   46.0600   -6.9250 C   0  0  1  0  0  3  0  0  0  0  0  0
  -33.5150   46.2410   -7.7940 C   0  0  1  0  0  3  0  0  0  0  0  0
  -34.6240   45.4330   -7.0890 C   0  0  0  0  0  2  0  0  0  0  0  0
  -34.3020   47.7190   -4.1020 C   0  0  0  0  0  2  0  0  0  0  0  0
  -33.5170   45.3670   -3.8580 C   0  0  0  0  0  0  0  0  0  0  0  0
  -35.0440   48.5390   -5.1500 C   0  0  0  0  0  2  0  0  0  0  0  0
  -30.9490   46.6080   -7.4990 C   0  0  2  0  0  3  0  0  0  0  0  0
  -33.9500   47.6680   -7.9580 C   0  0  0  0  0  0  0  0  0  0  0  0
  -35.3720   47.9500   -7.5670 C   0  0  0  0  0  2  0  0  0  0  0  0
  -32.1130   45.2190   -3.7420 C   0  0  0  0  0  0  0  0  0  0  0  0
  -29.8070   46.4860   -6.4710 C   0  0  0  0  0  2  0  0  0  0  0  0
  -30.1620   45.8180   -5.1660 C   0  0  0  0  0  0  0  0  0  0  0  0
  -33.1820   48.6410   -8.4600 C   0  0  0  0  0  3  0  0  0  0  0  0
  -34.3640   44.6150   -3.0630 C   0  0  0  0  0  3  0  0  0  0  0  0
  -31.7450   48.4400   -8.8300 C   0  0  0  0  0  2  0  0  0  0  0  0
  -31.5500   44.3370   -2.8270 C   0  0  0  0  0  3  0  0  0  0  0  0
  -33.8040   43.7120   -2.1560 C   0  0  0  0  0  3  0  0  0  0  0  0
  -32.4200   43.5840   -2.0380 C   0  0  0  0  0  3  0  0  0  0  0  0
  -36.6690   47.4660   -5.9850 H   0  0  0  0  0  0  0  0  0  0  0  0
  1 14  1  0  0  0  0
  3 26  1  1  0  0  0
  3  7  1  0  0  0  0
  3 13  1  0  0  0  0
  4 17  1  0  0  0  0
  5 11  1  1  0  0  0
  5 12  1  0  0  0  0
  6  5  1  0  0  0  0
  6  4  1  1  0  0  0
  7 10  1  6  0  0  0
  7  5  1  0  0  0  0
  8  6  1  0  0  0  0
  9 10  1  0  0  0  0
  9  8  1  0  0  0  0
 12 17  2  0  0  0  0
 12 21  1  0  0  0  0
 13 11  1  0  0  0  0
 14  8  1  0  0  0  0
 14 18  1  0  0  0  0
 15  9  1  0  0  0  0
 15 16  1  0  0  0  0
 16  3  1  0  0  0  0
 17 23  1  0  0  0  0
 18 19  1  0  0  0  0
 19  4  1  0  0  0  0
 19  2  2  0  0  0  0
 20 15  2  0  0  0  0
 21 24  2  0  0  0  0
 22 20  1  0  0  0  0
 22  1  1  0  0  0  0
 23 25  2  0  0  0  0
 24 25  1  0  0  0  0
M  END
>  <MODEL>
19

>  <REMARK>
 VINA RESULT:    -7.191     25.097     26.395
 INTER + INTRA:          -7.191
 INTER:                  -7.191
 INTRA:                   0.000
 UNBOUND:                 0.000
  0 active torsions:
  status: ('A' for Active; 'I' for Inactive)

>  <TORSDO>
F 0

$$$$
./Estricnina.pdbqt
 OpenBabel10282519553D

 26 32  0  0  1  0  0  0  0  0999 V2000
  -23.6900   -1.1350   16.8490 O   0  0  0  0  0  0  0  0  0  0  0  0
  -24.2760    2.6650   14.3760 O   0  0  0  0  0  0  0  0  0  0  0  0
  -20.4650   -3.0100   13.6740 N   0  0  1  0  0  4  0  0  0  0  0  0
  -22.6640    1.0880   14.1600 N   0  0  0  0  0  0  0  0  0  0  0  0
  -21.2740   -0.7130   13.3140 C   0  0  2  0  0  0  0  0  0  0  0  0
  -22.3120   -0.3320   14.4290 C   0  0  2  0  0  3  0  0  0  0  0  0
  -21.3890   -2.1520   12.7680 C   0  0  2  0  0  3  0  0  0  0  0  0
  -23.6320   -1.1250   14.4090 C   0  0  1  0  0  3  0  0  0  0  0  0
  -23.3800   -2.6190   14.1910 C   0  0  1  0  0  3  0  0  0  0  0  0
  -22.7950   -2.7300   12.7680 C   0  0  0  0  0  2  0  0  0  0  0  0
  -19.8410   -0.6650   13.8900 C   0  0  0  0  0  2  0  0  0  0  0  0
  -21.4540    0.3770   12.3020 C   0  0  0  0  0  0  0  0  0  0  0  0
  -19.6140   -2.0440   14.4980 C   0  0  0  0  0  2  0  0  0  0  0  0
  -24.3990   -0.7410   15.6870 C   0  0  2  0  0  3  0  0  0  0  0  0
  -22.4340   -3.2350   15.1810 C   0  0  0  0  0  0  0  0  0  0  0  0
  -21.2530   -3.9420   14.5790 C   0  0  0  0  0  2  0  0  0  0  0  0
  -22.2360    1.4210   12.8510 C   0  0  0  0  0  0  0  0  0  0  0  0
  -24.4630    0.7900   15.8540 C   0  0  0  0  0  2  0  0  0  0  0  0
  -23.8430    1.6020   14.7430 C   0  0  0  0  0  0  0  0  0  0  0  0
  -22.6140   -3.2270   16.5050 C   0  0  0  0  0  3  0  0  0  0  0  0
  -20.9250    0.4980   11.0290 C   0  0  0  0  0  3  0  0  0  0  0  0
  -23.7440   -2.5080   17.1740 C   0  0  0  0  0  2  0  0  0  0  0  0
  -22.4810    2.5920   12.1430 C   0  0  0  0  0  3  0  0  0  0  0  0
  -21.1860    1.6650   10.3040 C   0  0  0  0  0  3  0  0  0  0  0  0
  -21.9450    2.6950   10.8600 C   0  0  0  0  0  3  0  0  0  0  0  0
  -19.8420   -3.5860   13.0620 H   0  0  0  0  0  0  0  0  0  0  0  0
  1 22  1  0  0  0  0
  2 19  2  0  0  0  0
  3 26  1  6  0  0  0
  3 13  1  0  0  0  0
  3 16  1  0  0  0  0
  4 19  1  0  0  0  0
  5 11  1  1  0  0  0
  5  6  1  0  0  0  0
  6  4  1  6  0  0  0
  7 10  1  1  0  0  0
  7  5  1  0  0  0  0
  7  3  1  0  0  0  0
  8  6  1  0  0  0  0
  8 14  1  0  0  0  0
  9  8  1  0  0  0  0
  9 15  1  0  0  0  0
 10  9  1  0  0  0  0
 11 13  1  0  0  0  0
 12 17  1  0  0  0  0
 12  5  1  0  0  0  0
 14 18  1  0  0  0  0
 14  1  1  0  0  0  0
 15 20  2  0  0  0  0
 16 15  1  0  0  0  0
 17  4  1  0  0  0  0
 19 18  1  0  0  0  0
 20 22  1  0  0  0  0
 21 12  2  0  0  0  0
 23 17  2  0  0  0  0
 24 25  2  0  0  0  0
 24 21  1  0  0  0  0
 25 23  1  0  0  0  0
M  END
>  <MODEL>
20

>  <REMARK>
 VINA RESULT:    -7.084     36.693     39.434
 INTER + INTRA:          -7.084
 INTER:                  -7.084
 INTRA:                   0.000
 UNBOUND:                 0.000
  0 active torsions:
  status: ('A' for Active; 'I' for Inactive)

>  <TORSDO>
F 0

$$$$
