./Galantamina.pdbqt
 OpenBabel10282519553D

 23 26  0  0  1  0  0  0  0  0999 V2000
  -24.2100   24.0160   -7.9970 O   0  0  0  0  0  0  0  0  0  0  0  0
  -25.0840   20.5040  -11.0700 N   0  0  0  0  0  4  0  0  0  0  0  0
  -25.8180   22.2290   -8.6980 C   0  0  1  0  0  0  0  0  0  0  0  0
  -24.9090   22.7890   -7.5310 C   0  0  2  0  0  3  0  0  0  0  0  0
  -25.2570   23.0640   -9.8430 C   0  0  0  0  0  0  0  0  0  0  0  0
  -25.6750   20.6760   -8.6600 C   0  0  0  0  0  2  0  0  0  0  0  0
  -25.6480   23.1550   -6.2390 C   0  0  0  0  0  2  0  0  0  0  0  0
  -27.2880   22.5370   -8.6190 C   0  0  0  0  0  3  0  0  0  0  0  0
  -24.5470   24.1410   -9.3170 C   0  0  0  0  0  0  0  0  0  0  0  0
  -25.9990   19.9580   -9.9600 C   0  0  0  0  0  2  0  0  0  0  0  0
  -25.3850   22.9020  -11.2360 C   0  0  0  0  0  0  0  0  0  0  0  0
  -26.9900   23.8270   -6.4730 C   0  0  2  0  0  3  0  0  0  0  0  0
  -25.8090   21.6060  -11.8490 C   0  0  0  0  0  2  0  0  0  0  0  0
  -27.7940   23.2300   -7.5870 C   0  0  0  0  0  3  0  0  0  0  0  0
  -24.1300   25.2140  -10.1360 C   0  0  0  0  0  0  0  0  0  0  0  0
  -24.9590   23.9500  -12.0570 C   0  0  0  0  0  3  0  0  0  0  0  0
  -24.3750   25.1090  -11.4970 C   0  0  0  0  0  3  0  0  0  0  0  0
  -24.5010   19.3960  -11.9280 C   0  0  0  0  0  1  0  0  0  0  0  0
  -24.2710   20.9780  -10.5740 H   0  0  0  0  0  0  0  0  0  0  0  0
  -23.5090   26.2330   -9.4920 O   0  0  0  0  0  0  0  0  0  0  0  0
  -23.3810   27.4770  -10.1900 C   0  0  0  0  0  1  0  0  0  0  0  0
  -26.6620   25.1630   -6.8500 O   0  0  0  0  0  0  0  0  0  0  0  0
  -26.8020   25.7550   -6.0760 H   0  0  0  0  0  0  0  0  0  0  0  0
  1  4  1  0  0  0  0
  2 19  1  0  0  0  0
  2 10  1  0  0  0  0
  3  6  1  6  0  0  0
  3  8  1  0  0  0  0
  3  4  1  0  0  0  0
  4  7  1  1  0  0  0
  5  9  1  0  0  0  0
  5  3  1  0  0  0  0
  8 14  2  0  0  0  0
  9  1  1  0  0  0  0
 10  6  1  0  0  0  0
 11  5  2  0  0  0  0
 12 22  1  6  0  0  0
 12  7  1  0  0  0  0
 13 11  1  0  0  0  0
 13  2  1  0  0  0  0
 14 12  1  0  0  0  0
 15 20  1  0  0  0  0
 15  9  2  0  0  0  0
 16 17  2  0  0  0  0
 16 11  1  0  0  0  0
 17 15  1  0  0  0  0
 18  2  1  0  0  0  0
 21 20  1  0  0  0  0
 22 23  1  0  0  0  0
M  END
>  <MODEL>
1

>  <REMARK>
 VINA RESULT:    -7.362      0.000      0.000
 INTER + INTRA:          -8.087
 INTER:                  -8.008
 INTRA:                  -0.079
 UNBOUND:                -0.079
  2 active torsions:
  status: ('A' for Active; 'I' for Inactive)
    1  A    between atoms: O2_2  and  C10_14 
    2  A    between atoms: O3_3  and  C13_17 

>  <TORSDO>
F 2

$$$$
./Galantamina.pdbqt
 OpenBabel10282519553D

 23 26  0  0  1  0  0  0  0  0999 V2000
  -19.5460   -0.2610   13.7460 O   0  0  0  0  0  0  0  0  0  0  0  0
  -23.2540    2.6410   14.3560 N   0  0  0  0  0  4  0  0  0  0  0  0
  -21.0370    1.4460   12.6830 C   0  0  1  0  0  0  0  0  0  0  0  0
  -19.5540    1.0700   13.0820 C   0  0  2  0  0  3  0  0  0  0  0  0
  -21.7670    0.3780   13.4870 C   0  0  0  0  0  0  0  0  0  0  0  0
  -21.2020    2.9670   12.9880 C   0  0  0  0  0  2  0  0  0  0  0  0
  -18.5560    1.0010   11.9210 C   0  0  0  0  0  2  0  0  0  0  0  0
  -21.4230    1.2430   11.2430 C   0  0  0  0  0  3  0  0  0  0  0  0
  -20.8620   -0.6170   13.8510 C   0  0  0  0  0  0  0  0  0  0  0  0
  -22.6320    3.4400   13.1980 C   0  0  0  0  0  2  0  0  0  0  0  0
  -23.1250    0.2760   13.8450 C   0  0  0  0  0  0  0  0  0  0  0  0
  -19.1290    0.3730   10.6620 C   0  0  2  0  0  3  0  0  0  0  0  0
  -24.0470    1.4530   13.8040 C   0  0  0  0  0  2  0  0  0  0  0  0
  -20.5320    0.7890   10.3470 C   0  0  0  0  0  3  0  0  0  0  0  0
  -21.3030   -1.8490   14.3840 C   0  0  0  0  0  0  0  0  0  0  0  0
  -23.5690   -0.9320   14.3910 C   0  0  0  0  0  3  0  0  0  0  0  0
  -22.6630   -1.9930   14.6160 C   0  0  0  0  0  3  0  0  0  0  0  0
  -24.0240    3.5290   15.3160 C   0  0  0  0  0  1  0  0  0  0  0  0
  -22.4370    2.2260   14.8980 H   0  0  0  0  0  0  0  0  0  0  0  0
  -20.3280   -2.7590   14.6330 O   0  0  0  0  0  0  0  0  0  0  0  0
  -20.3940   -4.0070   13.9320 C   0  0  0  0  0  1  0  0  0  0  0  0
  -19.1490   -1.0270   10.9360 O   0  0  0  0  0  0  0  0  0  0  0  0
  -19.0880   -1.5180   10.0840 H   0  0  0  0  0  0  0  0  0  0  0  0
  1  9  1  0  0  0  0
  2 19  1  0  0  0  0
  2 18  1  0  0  0  0
  3  8  1  6  0  0  0
  3  6  1  0  0  0  0
  3  4  1  0  0  0  0
  3  5  1  0  0  0  0
  4  7  1  6  0  0  0
  4  1  1  0  0  0  0
  5 11  2  0  0  0  0
  5  9  1  0  0  0  0
  6 10  1  0  0  0  0
  9 15  2  0  0  0  0
 10  2  1  0  0  0  0
 11 16  1  0  0  0  0
 12 22  1  1  0  0  0
 12  7  1  0  0  0  0
 13 11  1  0  0  0  0
 13  2  1  0  0  0  0
 14 12  1  0  0  0  0
 14  8  2  0  0  0  0
 15 17  1  0  0  0  0
 15 20  1  0  0  0  0
 16 17  2  0  0  0  0
 21 20  1  0  0  0  0
 23 22  1  0  0  0  0
M  END
>  <MODEL>
2

>  <REMARK>
 VINA RESULT:    -7.088     30.642     32.839
 INTER + INTRA:          -7.789
 INTER:                  -7.700
 INTRA:                  -0.089
 UNBOUND:                -0.079
  2 active torsions:
  status: ('A' for Active; 'I' for Inactive)
    1  A    between atoms: O2_2  and  C10_14 
    2  A    between atoms: O3_3  and  C13_17 

>  <TORSDO>
F 2

$$$$
./Galantamina.pdbqt
 OpenBabel10282519553D

 23 26  0  0  1  0  0  0  0  0999 V2000
  -40.3610   30.0150    2.8190 O   0  0  0  0  0  0  0  0  0  0  0  0
  -43.7450   31.5430   -0.1410 N   0  0  0  0  0  4  0  0  0  0  0  0
  -42.8240   30.1760    2.3940 C   0  0  1  0  0  0  0  0  0  0  0  0
  -41.5970   29.2080    2.6360 C   0  0  2  0  0  3  0  0  0  0  0  0
  -42.0500   31.4640    2.1420 C   0  0  0  0  0  0  0  0  0  0  0  0
  -43.6990   29.5080    1.2890 C   0  0  0  0  0  2  0  0  0  0  0  0
  -41.7170   28.2850    3.8540 C   0  0  0  0  0  2  0  0  0  0  0  0
  -43.7250   30.4360    3.5700 C   0  0  0  0  0  3  0  0  0  0  0  0
  -40.7450   31.3110    2.6040 C   0  0  0  0  0  0  0  0  0  0  0  0
  -44.6070   30.4510    0.5150 C   0  0  0  0  0  2  0  0  0  0  0  0
  -42.4700   32.6830    1.5750 C   0  0  0  0  0  0  0  0  0  0  0  0
  -42.3380   28.9550    5.0680 C   0  0  2  0  0  3  0  0  0  0  0  0
  -43.7130   32.7880    0.7500 C   0  0  0  0  0  2  0  0  0  0  0  0
  -43.5010   29.8450    4.7540 C   0  0  0  0  0  3  0  0  0  0  0  0
  -39.8770   32.4180    2.7290 C   0  0  0  0  0  0  0  0  0  0  0  0
  -41.6120   33.7810    1.6760 C   0  0  0  0  0  3  0  0  0  0  0  0
  -40.3440   33.6470    2.2880 C   0  0  0  0  0  3  0  0  0  0  0  0
  -44.1470   31.8010   -1.5810 C   0  0  0  0  0  1  0  0  0  0  0  0
  -42.7510   31.1630   -0.1550 H   0  0  0  0  0  0  0  0  0  0  0  0
  -38.6570   32.1470    3.2570 O   0  0  0  0  0  0  0  0  0  0  0  0
  -38.5310   32.1780    4.6830 C   0  0  0  0  0  1  0  0  0  0  0  0
  -41.2990   29.7770    5.5950 O   0  0  0  0  0  0  0  0  0  0  0  0
  -41.3900   29.8140    6.5750 H   0  0  0  0  0  0  0  0  0  0  0  0
  2 10  1  0  0  0  0
  2 13  1  0  0  0  0
  3  6  1  6  0  0  0
  3  4  1  0  0  0  0
  3  8  1  0  0  0  0
  4  1  1  0  0  0  0
  4  7  1  1  0  0  0
  5  3  1  0  0  0  0
  5  9  1  0  0  0  0
  7 12  1  0  0  0  0
  8 14  2  0  0  0  0
  9 15  2  0  0  0  0
  9  1  1  0  0  0  0
 10  6  1  0  0  0  0
 11 16  1  0  0  0  0
 11  5  2  0  0  0  0
 12 22  1  6  0  0  0
 13 11  1  0  0  0  0
 14 12  1  0  0  0  0
 15 20  1  0  0  0  0
 16 17  2  0  0  0  0
 17 15  1  0  0  0  0
 18  2  1  0  0  0  0
 19  2  1  0  0  0  0
 20 21  1  0  0  0  0
 22 23  1  0  0  0  0
M  END
>  <MODEL>
3

>  <REMARK>
 VINA RESULT:    -6.990     21.110     22.110
 INTER + INTRA:          -7.682
 INTER:                  -7.602
 INTRA:                  -0.080
 UNBOUND:                -0.079
  2 active torsions:
  status: ('A' for Active; 'I' for Inactive)
    1  A    between atoms: O2_2  and  C10_14 
    2  A    between atoms: O3_3  and  C13_17 

>  <TORSDO>
F 2

$$$$
./Galantamina.pdbqt
 OpenBabel10282519553D

 23 26  0  0  1  0  0  0  0  0999 V2000
  -39.4000   38.4080   10.9140 O   0  0  0  0  0  0  0  0  0  0  0  0
  -37.1820   37.5770   15.0290 N   0  0  0  0  0  4  0  0  0  0  0  0
  -39.2560   36.9260   12.9280 C   0  0  1  0  0  0  0  0  0  0  0  0
  -40.1740   37.8910   12.0750 C   0  0  2  0  0  3  0  0  0  0  0  0
  -37.9130   37.2740   12.2980 C   0  0  0  0  0  0  0  0  0  0  0  0
  -39.5700   37.2310   14.4250 C   0  0  0  0  0  2  0  0  0  0  0  0
  -41.4550   37.2600   11.5190 C   0  0  0  0  0  2  0  0  0  0  0  0
  -39.4570   35.4490   12.7300 C   0  0  0  0  0  3  0  0  0  0  0  0
  -38.1330   37.9210   11.0840 C   0  0  0  0  0  0  0  0  0  0  0  0
  -38.4800   36.8460   15.4130 C   0  0  0  0  0  2  0  0  0  0  0  0
  -36.6030   37.0160   12.7440 C   0  0  0  0  0  0  0  0  0  0  0  0
  -41.2660   35.8380   11.0160 C   0  0  2  0  0  3  0  0  0  0  0  0
  -36.3040   36.6650   14.1670 C   0  0  0  0  0  2  0  0  0  0  0  0
  -40.3940   34.9870   11.8860 C   0  0  0  0  0  3  0  0  0  0  0  0
  -37.0800   38.1370   10.1670 C   0  0  0  0  0  0  0  0  0  0  0  0
  -35.5510   37.2430   11.8520 C   0  0  0  0  0  3  0  0  0  0  0  0
  -35.8050   37.7600   10.5610 C   0  0  0  0  0  3  0  0  0  0  0  0
  -36.4830   38.1770   16.2360 C   0  0  0  0  0  1  0  0  0  0  0  0
  -37.4740   38.3860   14.4020 H   0  0  0  0  0  0  0  0  0  0  0  0
  -37.4380   38.7140    8.9930 O   0  0  0  0  0  0  0  0  0  0  0  0
  -36.7340   39.8980    8.5960 C   0  0  0  0  0  1  0  0  0  0  0  0
  -40.6040   35.9860    9.7610 O   0  0  0  0  0  0  0  0  0  0  0  0
  -41.0140   36.7360    9.2720 H   0  0  0  0  0  0  0  0  0  0  0  0
  1  9  1  0  0  0  0
  1  4  1  0  0  0  0
  2 10  1  0  0  0  0
  2 18  1  0  0  0  0
  3  8  1  6  0  0  0
  3  6  1  0  0  0  0
  4  7  1  6  0  0  0
  4  3  1  0  0  0  0
  5 11  1  0  0  0  0
  5  3  1  0  0  0  0
  6 10  1  0  0  0  0
  9  5  2  0  0  0  0
 11 13  1  0  0  0  0
 12 22  1  6  0  0  0
 12  7  1  0  0  0  0
 12 14  1  0  0  0  0
 13  2  1  0  0  0  0
 14  8  2  0  0  0  0
 15 17  2  0  0  0  0
 15  9  1  0  0  0  0
 16 11  2  0  0  0  0
 17 16  1  0  0  0  0
 19  2  1  0  0  0  0
 20 15  1  0  0  0  0
 21 20  1  0  0  0  0
 23 22  1  0  0  0  0
M  END
>  <MODEL>
4

>  <REMARK>
 VINA RESULT:    -6.943     27.212     29.089
 INTER + INTRA:          -7.631
 INTER:                  -7.530
 INTRA:                  -0.101
 UNBOUND:                -0.079
  2 active torsions:
  status: ('A' for Active; 'I' for Inactive)
    1  A    between atoms: O2_2  and  C10_14 
    2  A    between atoms: O3_3  and  C13_17 

>  <TORSDO>
F 2

$$$$
./Galantamina.pdbqt
 OpenBabel10282519553D

 23 26  0  0  1  0  0  0  0  0999 V2000
  -41.5380   33.4490    4.4950 O   0  0  0  0  0  0  0  0  0  0  0  0
  -43.8060   30.4710    1.5750 N   0  0  0  0  0  4  0  0  0  0  0  0
  -41.3010   31.5560    2.8740 C   0  0  1  0  0  0  0  0  0  0  0  0
  -40.8980   33.0470    3.2140 C   0  0  2  0  0  3  0  0  0  0  0  0
  -42.4260   31.3880    3.8870 C   0  0  0  0  0  0  0  0  0  0  0  0
  -41.5590   31.5100    1.3360 C   0  0  0  0  0  2  0  0  0  0  0  0
  -39.3940   33.3060    3.3590 C   0  0  0  0  0  2  0  0  0  0  0  0
  -40.2820   30.4920    3.1800 C   0  0  0  0  0  3  0  0  0  0  0  0
  -42.3270   32.3900    4.8490 C   0  0  0  0  0  0  0  0  0  0  0  0
  -42.4490   30.3750    0.8560 C   0  0  0  0  0  2  0  0  0  0  0  0
  -43.4400   30.4130    3.9690 C   0  0  0  0  0  0  0  0  0  0  0  0
  -38.6500   32.1930    4.0770 C   0  0  2  0  0  3  0  0  0  0  0  0
  -43.8120   29.5550    2.8030 C   0  0  0  0  0  2  0  0  0  0  0  0
  -39.0820   30.8130    3.6910 C   0  0  0  0  0  3  0  0  0  0  0  0
  -43.0820   32.3380    6.0420 C   0  0  0  0  0  0  0  0  0  0  0  0
  -44.2050   30.3630    5.1380 C   0  0  0  0  0  3  0  0  0  0  0  0
  -43.9900   31.2980    6.1770 C   0  0  0  0  0  3  0  0  0  0  0  0
  -44.9730   30.2700    0.6260 C   0  0  0  0  0  1  0  0  0  0  0  0
  -43.8720   31.4660    1.9470 H   0  0  0  0  0  0  0  0  0  0  0  0
  -42.8440   33.3370    6.9280 O   0  0  0  0  0  0  0  0  0  0  0  0
  -43.2050   33.1090    8.2960 C   0  0  0  0  0  1  0  0  0  0  0  0
  -38.9750   32.3730    5.4540 O   0  0  0  0  0  0  0  0  0  0  0  0
  -38.2030   32.7770    5.9130 H   0  0  0  0  0  0  0  0  0  0  0  0
  1  9  1  0  0  0  0
  2 19  1  0  0  0  0
  2 13  1  0  0  0  0
  3  6  1  6  0  0  0
  3  8  1  0  0  0  0
  3  4  1  0  0  0  0
  3  5  1  0  0  0  0
  4  7  1  1  0  0  0
  4  1  1  0  0  0  0
  5 11  2  0  0  0  0
  5  9  1  0  0  0  0
  7 12  1  0  0  0  0
  8 14  2  0  0  0  0
  9 15  2  0  0  0  0
 10  6  1  0  0  0  0
 10  2  1  0  0  0  0
 11 16  1  0  0  0  0
 12 22  1  1  0  0  0
 13 11  1  0  0  0  0
 14 12  1  0  0  0  0
 15 17  1  0  0  0  0
 15 20  1  0  0  0  0
 16 17  2  0  0  0  0
 18  2  1  0  0  0  0
 20 21  1  0  0  0  0
 22 23  1  0  0  0  0
M  END
>  <MODEL>
5

>  <REMARK>
 VINA RESULT:    -6.817     20.974     23.320
 INTER + INTRA:          -7.495
 INTER:                  -7.415
 INTRA:                  -0.079
 UNBOUND:                -0.079
  2 active torsions:
  status: ('A' for Active; 'I' for Inactive)
    1  A    between atoms: O2_2  and  C10_14 
    2  A    between atoms: O3_3  and  C13_17 

>  <TORSDO>
F 2

$$$$
./Galantamina.pdbqt
 OpenBabel10282519553D

 23 26  0  0  1  0  0  0  0  0999 V2000
  -22.2890    0.5450   14.7000 O   0  0  0  0  0  0  0  0  0  0  0  0
  -18.7300    0.1190   11.5870 N   0  0  0  0  0  4  0  0  0  0  0  0
  -21.0330   -1.0070   13.1900 C   0  0  1  0  0  0  0  0  0  0  0  0
  -21.4790   -0.7030   14.6760 C   0  0  2  0  0  3  0  0  0  0  0  0
  -21.3920    0.3340   12.5650 C   0  0  0  0  0  0  0  0  0  0  0  0
  -19.5590   -1.5140   13.2700 C   0  0  0  0  0  2  0  0  0  0  0  0
  -22.3150   -1.7960   15.3500 C   0  0  0  0  0  2  0  0  0  0  0  0
  -21.8180   -2.0540   12.4480 C   0  0  0  0  0  3  0  0  0  0  0  0
  -22.2560    1.0190   13.4180 C   0  0  0  0  0  0  0  0  0  0  0  0
  -18.7470   -1.3650   11.9930 C   0  0  0  0  0  2  0  0  0  0  0  0
  -21.0110    0.8960   11.3310 C   0  0  0  0  0  0  0  0  0  0  0  0
  -23.3330   -2.4420   14.4260 C   0  0  2  0  0  3  0  0  0  0  0  0
  -19.8330    0.3920   10.5600 C   0  0  0  0  0  2  0  0  0  0  0  0
  -22.8280   -2.7090   13.0420 C   0  0  0  0  0  3  0  0  0  0  0  0
  -22.9470    2.1730   12.9890 C   0  0  0  0  0  0  0  0  0  0  0  0
  -21.6750    2.0490   10.9040 C   0  0  0  0  0  3  0  0  0  0  0  0
  -22.6630    2.6500   11.7170 C   0  0  0  0  0  3  0  0  0  0  0  0
  -17.3460    0.5840   11.1720 C   0  0  0  0  0  1  0  0  0  0  0  0
  -18.9970    0.6660   12.4600 H   0  0  0  0  0  0  0  0  0  0  0  0
  -23.8100    2.7060   13.8890 O   0  0  0  0  0  0  0  0  0  0  0  0
  -25.1580    2.2210   13.8820 C   0  0  0  0  0  1  0  0  0  0  0  0
  -24.3840   -1.4830   14.3210 O   0  0  0  0  0  0  0  0  0  0  0  0
  -24.2000   -0.7420   14.9420 H   0  0  0  0  0  0  0  0  0  0  0  0
  2 10  1  0  0  0  0
  2 19  1  0  0  0  0
  3  8  1  6  0  0  0
  3  6  1  0  0  0  0
  3  4  1  0  0  0  0
  4  1  1  0  0  0  0
  4  7  1  6  0  0  0
  5  3  1  0  0  0  0
  5  9  1  0  0  0  0
  8 14  2  0  0  0  0
  9  1  1  0  0  0  0
 10  6  1  0  0  0  0
 11  5  2  0  0  0  0
 12 22  1  6  0  0  0
 12  7  1  0  0  0  0
 13 11  1  0  0  0  0
 13  2  1  0  0  0  0
 14 12  1  0  0  0  0
 15  9  2  0  0  0  0
 15 20  1  0  0  0  0
 16 11  1  0  0  0  0
 16 17  2  0  0  0  0
 17 15  1  0  0  0  0
 18  2  1  0  0  0  0
 21 20  1  0  0  0  0
 22 23  1  0  0  0  0
M  END
>  <MODEL>
6

>  <REMARK>
 VINA RESULT:    -6.749     30.602     32.531
 INTER + INTRA:          -7.420
 INTER:                  -7.332
 INTRA:                  -0.089
 UNBOUND:                -0.079
  2 active torsions:
  status: ('A' for Active; 'I' for Inactive)
    1  A    between atoms: O2_2  and  C10_14 
    2  A    between atoms: O3_3  and  C13_17 

>  <TORSDO>
F 2

$$$$
./Galantamina.pdbqt
 OpenBabel10282519553D

 23 26  0  0  1  0  0  0  0  0999 V2000
  -33.8860   24.0490  -14.7400 O   0  0  0  0  0  0  0  0  0  0  0  0
  -38.5780   23.5020  -15.2220 N   0  0  0  0  0  4  0  0  0  0  0  0
  -35.7230   22.5950  -15.6270 C   0  0  1  0  0  0  0  0  0  0  0  0
  -34.4310   23.4360  -15.9820 C   0  0  2  0  0  3  0  0  0  0  0  0
  -35.9480   23.1110  -14.2120 C   0  0  0  0  0  0  0  0  0  0  0  0
  -36.7460   22.8560  -16.7750 C   0  0  0  0  0  2  0  0  0  0  0  0
  -33.2910   22.6480  -16.6340 C   0  0  0  0  0  2  0  0  0  0  0  0
  -35.5520   21.1040  -15.5210 C   0  0  0  0  0  3  0  0  0  0  0  0
  -34.7830   23.7270  -13.7590 C   0  0  0  0  0  0  0  0  0  0  0  0
  -38.2040   22.6110  -16.4190 C   0  0  0  0  0  2  0  0  0  0  0  0
  -37.0810   23.0220  -13.3790 C   0  0  0  0  0  0  0  0  0  0  0  0
  -33.0900   21.2630  -16.0430 C   0  0  2  0  0  3  0  0  0  0  0  0
  -38.4400   22.7100  -13.9180 C   0  0  0  0  0  2  0  0  0  0  0  0
  -34.3610   20.5280  -15.7470 C   0  0  0  0  0  3  0  0  0  0  0  0
  -34.6190   24.0760  -12.4000 C   0  0  0  0  0  0  0  0  0  0  0  0
  -36.9350   23.3820  -12.0360 C   0  0  0  0  0  3  0  0  0  0  0  0
  -35.6970   23.8640  -11.5530 C   0  0  0  0  0  3  0  0  0  0  0  0
  -39.9210   24.1840  -15.4120 C   0  0  0  0  0  1  0  0  0  0  0  0
  -37.8400   24.2670  -15.1830 H   0  0  0  0  0  0  0  0  0  0  0  0
  -33.4130   24.6050  -12.0750 O   0  0  0  0  0  0  0  0  0  0  0  0
  -32.4270   23.7200  -11.5320 C   0  0  0  0  0  1  0  0  0  0  0  0
  -32.4300   21.4950  -14.8000 O   0  0  0  0  0  0  0  0  0  0  0  0
  -32.1650   20.6290  -14.4140 H   0  0  0  0  0  0  0  0  0  0  0  0
  1  9  1  0  0  0  0
  2 19  1  0  0  0  0
  2 13  1  0  0  0  0
  3  6  1  6  0  0  0
  3  8  1  0  0  0  0
  3  5  1  0  0  0  0
  4  7  1  1  0  0  0
  4  3  1  0  0  0  0
  4  1  1  0  0  0  0
  5  9  2  0  0  0  0
  5 11  1  0  0  0  0
  6 10  1  0  0  0  0
  7 12  1  0  0  0  0
  9 15  1  0  0  0  0
 10  2  1  0  0  0  0
 11 16  2  0  0  0  0
 12 14  1  0  0  0  0
 12 22  1  1  0  0  0
 13 11  1  0  0  0  0
 14  8  2  0  0  0  0
 15 20  1  0  0  0  0
 15 17  2  0  0  0  0
 16 17  1  0  0  0  0
 18  2  1  0  0  0  0
 20 21  1  0  0  0  0
 22 23  1  0  0  0  0
M  END
>  <MODEL>
7

>  <REMARK>
 VINA RESULT:    -6.737     10.566     12.202
 INTER + INTRA:          -7.407
 INTER:                  -7.299
 INTRA:                  -0.108
 UNBOUND:                -0.079
  2 active torsions:
  status: ('A' for Active; 'I' for Inactive)
    1  A    between atoms: O2_2  and  C10_14 
    2  A    between atoms: O3_3  and  C13_17 

>  <TORSDO>
F 2

$$$$
./Galantamina.pdbqt
 OpenBabel10282519553D

 23 26  0  0  1  0  0  0  0  0999 V2000
  -38.0160   40.9060   10.6790 O   0  0  0  0  0  0  0  0  0  0  0  0
  -35.8220   37.7560   13.4730 N   0  0  0  0  0  4  0  0  0  0  0  0
  -36.1340   39.2650   10.8720 C   0  0  1  0  0  0  0  0  0  0  0  0
  -37.4450   39.6680   10.0830 C   0  0  2  0  0  3  0  0  0  0  0  0
  -36.3000   40.1860   12.0740 C   0  0  0  0  0  0  0  0  0  0  0  0
  -36.1650   37.7110   11.0100 C   0  0  0  0  0  2  0  0  0  0  0  0
  -37.2570   39.9330    8.5860 C   0  0  0  0  0  2  0  0  0  0  0  0
  -34.8210   39.6230   10.2310 C   0  0  0  0  0  3  0  0  0  0  0  0
  -37.2310   41.1750   11.7660 C   0  0  0  0  0  0  0  0  0  0  0  0
  -35.3370   37.1400   12.1500 C   0  0  0  0  0  2  0  0  0  0  0  0
  -35.6620   40.1690   13.3300 C   0  0  0  0  0  0  0  0  0  0  0  0
  -35.9760   40.6790    8.2540 C   0  0  2  0  0  3  0  0  0  0  0  0
  -34.9480   38.9590   13.8410 C   0  0  0  0  0  2  0  0  0  0  0  0
  -34.7800   40.2300    9.0350 C   0  0  0  0  0  3  0  0  0  0  0  0
  -37.4000   42.3060   12.5950 C   0  0  0  0  0  0  0  0  0  0  0  0
  -35.8360   41.2750   14.1660 C   0  0  0  0  0  3  0  0  0  0  0  0
  -36.6680   42.3480   13.7730 C   0  0  0  0  0  3  0  0  0  0  0  0
  -35.9680   36.7170   14.5690 C   0  0  0  0  0  1  0  0  0  0  0  0
  -36.7930   38.1450   13.2770 H   0  0  0  0  0  0  0  0  0  0  0  0
  -38.2870   43.2300   12.1490 O   0  0  0  0  0  0  0  0  0  0  0  0
  -37.7670   44.3550   11.4310 C   0  0  0  0  0  1  0  0  0  0  0  0
  -36.2430   42.0320    8.6210 O   0  0  0  0  0  0  0  0  0  0  0  0
  -36.9460   42.0410    9.3110 H   0  0  0  0  0  0  0  0  0  0  0  0
  1  9  1  0  0  0  0
  2 13  1  0  0  0  0
  2 18  1  0  0  0  0
  3  8  1  6  0  0  0
  3  6  1  0  0  0  0
  3  5  1  0  0  0  0
  4  7  1  6  0  0  0
  4  1  1  0  0  0  0
  4  3  1  0  0  0  0
  5 11  1  0  0  0  0
  6 10  1  0  0  0  0
  9  5  2  0  0  0  0
  9 15  1  0  0  0  0
 10  2  1  0  0  0  0
 11 13  1  0  0  0  0
 11 16  2  0  0  0  0
 12  7  1  0  0  0  0
 12 22  1  1  0  0  0
 12 14  1  0  0  0  0
 14  8  2  0  0  0  0
 15 17  2  0  0  0  0
 17 16  1  0  0  0  0
 19  2  1  0  0  0  0
 20 15  1  0  0  0  0
 21 20  1  0  0  0  0
 22 23  1  0  0  0  0
M  END
>  <MODEL>
8

>  <REMARK>
 VINA RESULT:    -6.667     27.281     29.497
 INTER + INTRA:          -7.331
 INTER:                  -7.223
 INTRA:                  -0.108
 UNBOUND:                -0.079
  2 active torsions:
  status: ('A' for Active; 'I' for Inactive)
    1  A    between atoms: O2_2  and  C10_14 
    2  A    between atoms: O3_3  and  C13_17 

>  <TORSDO>
F 2

$$$$
./Galantamina.pdbqt
 OpenBabel10282519553D

 23 26  0  0  1  0  0  0  0  0999 V2000
   -8.1370   37.9990   10.4970 O   0  0  0  0  0  0  0  0  0  0  0  0
   -3.6410   39.1070   11.5450 N   0  0  0  0  0  4  0  0  0  0  0  0
   -5.8430   37.1160   10.9760 C   0  0  1  0  0  0  0  0  0  0  0  0
   -7.3610   37.1270   11.4200 C   0  0  2  0  0  3  0  0  0  0  0  0
   -5.8830   38.2860   10.0010 C   0  0  0  0  0  0  0  0  0  0  0  0
   -5.0010   37.1620   12.2890 C   0  0  0  0  0  2  0  0  0  0  0  0
   -8.0520   35.7590   11.4360 C   0  0  0  0  0  2  0  0  0  0  0  0
   -5.3740   35.9180   10.1960 C   0  0  0  0  0  3  0  0  0  0  0  0
   -7.2080   38.5500    9.6590 C   0  0  0  0  0  0  0  0  0  0  0  0
   -3.5830   37.6880   12.1370 C   0  0  0  0  0  2  0  0  0  0  0  0
   -4.8340   39.0390    9.4380 C   0  0  0  0  0  0  0  0  0  0  0  0
   -7.6650   34.8660   10.2700 C   0  0  2  0  0  3  0  0  0  0  0  0
   -3.4590   39.0470   10.0260 C   0  0  0  0  0  2  0  0  0  0  0  0
   -6.2090   34.9030    9.9210 C   0  0  0  0  0  3  0  0  0  0  0  0
   -7.5300   39.4120    8.5880 C   0  0  0  0  0  0  0  0  0  0  0  0
   -5.1440   39.9090    8.3890 C   0  0  0  0  0  3  0  0  0  0  0  0
   -6.4800   40.0550    7.9490 C   0  0  0  0  0  3  0  0  0  0  0  0
   -2.7050   40.0640   12.2600 C   0  0  0  0  0  1  0  0  0  0  0  0
   -4.6330   39.4550   11.7120 H   0  0  0  0  0  0  0  0  0  0  0  0
   -8.8520   39.5320    8.3120 O   0  0  0  0  0  0  0  0  0  0  0  0
   -9.4220   40.8460    8.3570 C   0  0  0  0  0  1  0  0  0  0  0  0
   -8.3850   35.3930    9.1580 O   0  0  0  0  0  0  0  0  0  0  0  0
   -7.7410   35.7230    8.4900 H   0  0  0  0  0  0  0  0  0  0  0  0
  1  4  1  0  0  0  0
  2 19  1  0  0  0  0
  2 10  1  0  0  0  0
  2 18  1  0  0  0  0
  3  8  1  6  0  0  0
  3  4  1  0  0  0  0
  3  6  1  0  0  0  0
  4  7  1  6  0  0  0
  5  3  1  0  0  0  0
  9  5  1  0  0  0  0
  9  1  1  0  0  0  0
 10  6  1  0  0  0  0
 11  5  2  0  0  0  0
 11 13  1  0  0  0  0
 12 22  1  6  0  0  0
 12  7  1  0  0  0  0
 13  2  1  0  0  0  0
 14  8  2  0  0  0  0
 14 12  1  0  0  0  0
 15  9  2  0  0  0  0
 16 11  1  0  0  0  0
 17 16  2  0  0  0  0
 17 15  1  0  0  0  0
 20 21  1  0  0  0  0
 20 15  1  0  0  0  0
 23 22  1  0  0  0  0
M  END
>  <MODEL>
9

>  <REMARK>
 VINA RESULT:    -6.587     29.195     31.320
 INTER + INTRA:          -7.244
 INTER:                  -7.141
 INTRA:                  -0.102
 UNBOUND:                -0.079
  2 active torsions:
  status: ('A' for Active; 'I' for Inactive)
    1  A    between atoms: O2_2  and  C10_14 
    2  A    between atoms: O3_3  and  C13_17 

>  <TORSDO>
F 2

$$$$
./Galantamina.pdbqt
 OpenBabel10282519553D

 23 26  0  0  1  0  0  0  0  0999 V2000
  -36.3140   41.4080   10.8890 O   0  0  0  0  0  0  0  0  0  0  0  0
  -39.2080   38.0080   12.5040 N   0  0  0  0  0  4  0  0  0  0  0  0
  -37.0940   39.0450   10.6080 C   0  0  1  0  0  0  0  0  0  0  0  0
  -36.9490   40.4660    9.9280 C   0  0  2  0  0  3  0  0  0  0  0  0
  -36.8000   39.4500   12.0470 C   0  0  0  0  0  0  0  0  0  0  0  0
  -38.4850   38.4900   10.1730 C   0  0  0  0  0  2  0  0  0  0  0  0
  -36.1130   40.4990    8.6440 C   0  0  0  0  0  2  0  0  0  0  0  0
  -36.0710   38.0070   10.2340 C   0  0  0  0  0  3  0  0  0  0  0  0
  -36.1850   40.7010   12.0520 C   0  0  0  0  0  0  0  0  0  0  0  0
  -39.0790   37.4280   11.0850 C   0  0  0  0  0  2  0  0  0  0  0  0
  -37.0300   38.7610   13.2530 C   0  0  0  0  0  0  0  0  0  0  0  0
  -34.8800   39.6120    8.6950 C   0  0  2  0  0  3  0  0  0  0  0  0
  -37.9870   37.6160   13.3420 C   0  0  0  0  0  2  0  0  0  0  0  0
  -35.1040   38.2810    9.3430 C   0  0  0  0  0  3  0  0  0  0  0  0
  -35.5780   41.2140   13.2200 C   0  0  0  0  0  0  0  0  0  0  0  0
  -36.4490   39.2690   14.4180 C   0  0  0  0  0  3  0  0  0  0  0  0
  -35.6960   40.4650   14.3810 C   0  0  0  0  0  3  0  0  0  0  0  0
  -40.5470   37.6790   13.1380 C   0  0  0  0  0  1  0  0  0  0  0  0
  -39.1640   39.0660   12.3940 H   0  0  0  0  0  0  0  0  0  0  0  0
  -34.9540   42.4100   13.0760 O   0  0  0  0  0  0  0  0  0  0  0  0
  -35.3540   43.4740   13.9470 C   0  0  0  0  0  1  0  0  0  0  0  0
  -33.9530   40.3320    9.5060 O   0  0  0  0  0  0  0  0  0  0  0  0
  -33.2900   39.7000    9.8670 H   0  0  0  0  0  0  0  0  0  0  0  0
  1  9  1  0  0  0  0
  2 18  1  0  0  0  0
  2 13  1  0  0  0  0
  3  6  1  6  0  0  0
  3  5  1  0  0  0  0
  4  7  1  6  0  0  0
  4  3  1  0  0  0  0
  4  1  1  0  0  0  0
  5  9  2  0  0  0  0
  5 11  1  0  0  0  0
  6 10  1  0  0  0  0
  7 12  1  0  0  0  0
  8  3  1  0  0  0  0
  9 15  1  0  0  0  0
 10  2  1  0  0  0  0
 11 13  1  0  0  0  0
 11 16  2  0  0  0  0
 12 14  1  0  0  0  0
 12 22  1  1  0  0  0
 14  8  2  0  0  0  0
 15 17  2  0  0  0  0
 17 16  1  0  0  0  0
 19  2  1  0  0  0  0
 20 15  1  0  0  0  0
 20 21  1  0  0  0  0
 22 23  1  0  0  0  0
M  END
>  <MODEL>
10

>  <REMARK>
 VINA RESULT:    -6.478     26.445     29.310
 INTER + INTRA:          -7.126
 INTER:                  -7.025
 INTRA:                  -0.101
 UNBOUND:                -0.079
  2 active torsions:
  status: ('A' for Active; 'I' for Inactive)
    1  A    between atoms: O2_2  and  C10_14 
    2  A    between atoms: O3_3  and  C13_17 

>  <TORSDO>
F 2

$$$$
./Galantamina.pdbqt
 OpenBabel10282519553D

 23 26  0  0  1  0  0  0  0  0999 V2000
  -43.0120   26.8810   -3.4990 O   0  0  0  0  0  0  0  0  0  0  0  0
  -42.5100   24.8070    0.7430 N   0  0  0  0  0  4  0  0  0  0  0  0
  -43.9250   26.6650   -1.1770 C   0  0  1  0  0  0  0  0  0  0  0  0
  -43.3290   27.6480   -2.2630 C   0  0  2  0  0  3  0  0  0  0  0  0
  -43.5650   25.3430   -1.8430 C   0  0  0  0  0  0  0  0  0  0  0  0
  -43.3090   27.0960    0.1900 C   0  0  0  0  0  2  0  0  0  0  0  0
  -44.2430   28.8070   -2.6740 C   0  0  0  0  0  2  0  0  0  0  0  0
  -45.4190   26.6700   -1.0060 C   0  0  0  0  0  3  0  0  0  0  0  0
  -43.2680   25.5750   -3.1850 C   0  0  0  0  0  0  0  0  0  0  0  0
  -43.2920   26.0230    1.2670 C   0  0  0  0  0  2  0  0  0  0  0  0
  -43.5280   24.0370   -1.3170 C   0  0  0  0  0  0  0  0  0  0  0  0
  -45.7050   28.4160   -2.8030 C   0  0  2  0  0  3  0  0  0  0  0  0
  -43.4780   23.7760    0.1550 C   0  0  0  0  0  2  0  0  0  0  0  0
  -46.1940   27.4940   -1.7290 C   0  0  0  0  0  3  0  0  0  0  0  0
  -43.1430   24.5080   -4.1020 C   0  0  0  0  0  0  0  0  0  0  0  0
  -43.3870   22.9750   -2.2130 C   0  0  0  0  0  3  0  0  0  0  0  0
  -43.2380   23.2190   -3.5980 C   0  0  0  0  0  3  0  0  0  0  0  0
  -41.5460   24.2560    1.7780 C   0  0  0  0  0  1  0  0  0  0  0  0
  -41.9250   25.1630   -0.0720 H   0  0  0  0  0  0  0  0  0  0  0  0
  -42.9220   24.8690   -5.3910 O   0  0  0  0  0  0  0  0  0  0  0  0
  -43.2820   23.9310   -6.4120 C   0  0  0  0  0  1  0  0  0  0  0  0
  -45.7800   27.7100   -4.0400 O   0  0  0  0  0  0  0  0  0  0  0  0
  -46.7280   27.5900   -4.2800 H   0  0  0  0  0  0  0  0  0  0  0  0
  1  9  1  0  0  0  0
  1  4  1  0  0  0  0
  2 10  1  0  0  0  0
  2 18  1  0  0  0  0
  3  8  1  1  0  0  0
  3  6  1  0  0  0  0
  4  7  1  6  0  0  0
  4  3  1  0  0  0  0
  5 11  1  0  0  0  0
  5  3  1  0  0  0  0
  6 10  1  0  0  0  0
  9  5  2  0  0  0  0
 11 13  1  0  0  0  0
 12 22  1  6  0  0  0
 12  7  1  0  0  0  0
 12 14  1  0  0  0  0
 13  2  1  0  0  0  0
 14  8  2  0  0  0  0
 15 17  2  0  0  0  0
 15  9  1  0  0  0  0
 16 11  2  0  0  0  0
 17 16  1  0  0  0  0
 19  2  1  0  0  0  0
 20 15  1  0  0  0  0
 21 20  1  0  0  0  0
 23 22  1  0  0  0  0
M  END
>  <MODEL>
11

>  <REMARK>
 VINA RESULT:    -6.464     18.532     20.405
 INTER + INTRA:          -7.110
 INTER:                  -7.031
 INTRA:                  -0.079
 UNBOUND:                -0.079
  2 active torsions:
  status: ('A' for Active; 'I' for Inactive)
    1  A    between atoms: O2_2  and  C10_14 
    2  A    between atoms: O3_3  and  C13_17 

>  <TORSDO>
F 2

$$$$
./Galantamina.pdbqt
 OpenBabel10282519553D

 23 26  0  0  1  0  0  0  0  0999 V2000
  -37.6620   22.2380  -13.1230 O   0  0  0  0  0  0  0  0  0  0  0  0
  -35.2860   20.1650  -16.6730 N   0  0  0  0  0  4  0  0  0  0  0  0
  -37.7040   21.5830  -15.5400 C   0  0  1  0  0  0  0  0  0  0  0  0
  -38.4020   21.4290  -14.1290 C   0  0  2  0  0  3  0  0  0  0  0  0
  -36.4070   22.2380  -15.0810 C   0  0  0  0  0  0  0  0  0  0  0  0
  -37.7280   20.1690  -16.1980 C   0  0  0  0  0  2  0  0  0  0  0  0
  -39.8700   21.8670  -14.0690 C   0  0  0  0  0  2  0  0  0  0  0  0
  -38.3470   22.5320  -16.5140 C   0  0  0  0  0  3  0  0  0  0  0  0
  -36.5790   22.7380  -13.7920 C   0  0  0  0  0  0  0  0  0  0  0  0
  -36.6820   19.9320  -17.2760 C   0  0  0  0  0  2  0  0  0  0  0  0
  -35.1820   22.4050  -15.7560 C   0  0  0  0  0  0  0  0  0  0  0  0
  -40.1640   23.1250  -14.8690 C   0  0  2  0  0  3  0  0  0  0  0  0
  -34.8240   21.5960  -16.9610 C   0  0  0  0  0  2  0  0  0  0  0  0
  -39.4740   23.1880  -16.1970 C   0  0  0  0  0  3  0  0  0  0  0  0
  -35.6320   23.6100  -13.2120 C   0  0  0  0  0  0  0  0  0  0  0  0
  -34.2300   23.2520  -15.1820 C   0  0  0  0  0  3  0  0  0  0  0  0
  -34.4810   23.8760  -13.9390 C   0  0  0  0  0  3  0  0  0  0  0  0
  -34.3000   19.0850  -17.0760 C   0  0  0  0  0  1  0  0  0  0  0  0
  -35.4080   20.1000  -15.6170 H   0  0  0  0  0  0  0  0  0  0  0  0
  -35.9490   24.0810  -11.9800 O   0  0  0  0  0  0  0  0  0  0  0  0
  -34.9330   24.0360  -10.9710 C   0  0  0  0  0  1  0  0  0  0  0  0
  -39.6490   24.1880  -14.0690 O   0  0  0  0  0  0  0  0  0  0  0  0
  -40.3480   24.8740  -13.9650 H   0  0  0  0  0  0  0  0  0  0  0  0
  2 19  1  0  0  0  0
  3  8  1  6  0  0  0
  3  5  1  0  0  0  0
  3  4  1  0  0  0  0
  4  7  1  6  0  0  0
  4  1  1  0  0  0  0
  5  9  1  0  0  0  0
  6  3  1  0  0  0  0
  8 14  2  0  0  0  0
  9 15  2  0  0  0  0
  9  1  1  0  0  0  0
 10  2  1  0  0  0  0
 10  6  1  0  0  0  0
 11 16  1  0  0  0  0
 11  5  2  0  0  0  0
 12  7  1  0  0  0  0
 12 22  1  1  0  0  0
 13  2  1  0  0  0  0
 13 11  1  0  0  0  0
 14 12  1  0  0  0  0
 15 20  1  0  0  0  0
 16 17  2  0  0  0  0
 17 15  1  0  0  0  0
 18  2  1  0  0  0  0
 20 21  1  0  0  0  0
 22 23  1  0  0  0  0
M  END
>  <MODEL>
12

>  <REMARK>
 VINA RESULT:    -6.456     11.789     13.068
 INTER + INTRA:          -7.101
 INTER:                  -7.004
 INTRA:                  -0.097
 UNBOUND:                -0.079
  2 active torsions:
  status: ('A' for Active; 'I' for Inactive)
    1  A    between atoms: O2_2  and  C10_14 
    2  A    between atoms: O3_3  and  C13_17 

>  <TORSDO>
F 2

$$$$
./Galantamina.pdbqt
 OpenBabel10282519553D

 23 26  0  0  1  0  0  0  0  0999 V2000
  -38.7630   39.0080   14.1450 O   0  0  0  0  0  0  0  0  0  0  0  0
  -35.1600   39.1060   11.0540 N   0  0  0  0  0  4  0  0  0  0  0  0
  -36.3980   38.3180   13.6980 C   0  0  1  0  0  0  0  0  0  0  0  0
  -37.3680   39.1310   14.6460 C   0  0  2  0  0  3  0  0  0  0  0  0
  -37.3580   38.0810   12.5390 C   0  0  0  0  0  0  0  0  0  0  0  0
  -35.1100   39.1850   13.5400 C   0  0  0  0  0  2  0  0  0  0  0  0
  -37.3760   38.6900   16.1140 C   0  0  0  0  0  2  0  0  0  0  0  0
  -35.9580   36.9620   14.1790 C   0  0  0  0  0  3  0  0  0  0  0  0
  -38.6630   38.3070   12.9740 C   0  0  0  0  0  0  0  0  0  0  0  0
  -34.2790   38.9000   12.2990 C   0  0  0  0  0  2  0  0  0  0  0  0
  -37.1060   37.6710   11.2150 C   0  0  0  0  0  0  0  0  0  0  0  0
  -37.3060   37.1840   16.2990 C   0  0  2  0  0  3  0  0  0  0  0  0
  -35.7460   37.7650   10.6020 C   0  0  0  0  0  2  0  0  0  0  0  0
  -36.3570   36.4910   15.3710 C   0  0  0  0  0  3  0  0  0  0  0  0
  -39.7730   37.9250   12.1900 C   0  0  0  0  0  0  0  0  0  0  0  0
  -38.1990   37.3080   10.4240 C   0  0  0  0  0  3  0  0  0  0  0  0
  -39.5150   37.3990   10.9320 C   0  0  0  0  0  3  0  0  0  0  0  0
  -34.4430   39.8850    9.9670 C   0  0  0  0  0  1  0  0  0  0  0  0
  -35.9860   39.6970   11.3730 H   0  0  0  0  0  0  0  0  0  0  0  0
  -40.9880   38.1370   12.7550 O   0  0  0  0  0  0  0  0  0  0  0  0
  -42.0140   37.1700   12.5020 C   0  0  0  0  0  1  0  0  0  0  0  0
  -38.6200   36.7220   15.9890 O   0  0  0  0  0  0  0  0  0  0  0  0
  -38.7470   35.8320   16.3890 H   0  0  0  0  0  0  0  0  0  0  0  0
  1  4  1  0  0  0  0
  2 19  1  0  0  0  0
  2 10  1  0  0  0  0
  3  6  1  6  0  0  0
  3  8  1  0  0  0  0
  3  4  1  0  0  0  0
  4  7  1  1  0  0  0
  5  9  1  0  0  0  0
  5  3  1  0  0  0  0
  7 12  1  0  0  0  0
  8 14  2  0  0  0  0
  9  1  1  0  0  0  0
 10  6  1  0  0  0  0
 11  5  2  0  0  0  0
 12 22  1  6  0  0  0
 13  2  1  0  0  0  0
 13 11  1  0  0  0  0
 14 12  1  0  0  0  0
 15 20  1  0  0  0  0
 15  9  2  0  0  0  0
 16 17  2  0  0  0  0
 16 11  1  0  0  0  0
 17 15  1  0  0  0  0
 18  2  1  0  0  0  0
 21 20  1  0  0  0  0
 22 23  1  0  0  0  0
M  END
>  <MODEL>
13

>  <REMARK>
 VINA RESULT:    -6.420     27.660     29.756
 INTER + INTRA:          -7.062
 INTER:                  -6.983
 INTRA:                  -0.080
 UNBOUND:                -0.079
  2 active torsions:
  status: ('A' for Active; 'I' for Inactive)
    1  A    between atoms: O2_2  and  C10_14 
    2  A    between atoms: O3_3  and  C13_17 

>  <TORSDO>
F 2

$$$$
./Galantamina.pdbqt
 OpenBabel10282519553D

 23 26  0  0  1  0  0  0  0  0999 V2000
  -36.6900   40.0200   13.0110 O   0  0  0  0  0  0  0  0  0  0  0  0
  -34.6410   40.1610    8.7300 N   0  0  0  0  0  4  0  0  0  0  0  0
  -36.4880   38.9140   10.7730 C   0  0  1  0  0  0  0  0  0  0  0  0
  -36.3090   38.7500   12.3360 C   0  0  2  0  0  3  0  0  0  0  0  0
  -36.6540   40.4280   10.7220 C   0  0  0  0  0  0  0  0  0  0  0  0
  -35.2710   38.1930   10.1140 C   0  0  0  0  0  2  0  0  0  0  0  0
  -37.1370   37.6320   12.9790 C   0  0  0  0  0  2  0  0  0  0  0  0
  -37.7300   38.3220   10.1670 C   0  0  0  0  0  3  0  0  0  0  0  0
  -36.9600   40.8970   11.9970 C   0  0  0  0  0  0  0  0  0  0  0  0
  -34.9260   38.6500    8.7060 C   0  0  0  0  0  2  0  0  0  0  0  0
  -36.5700   41.3170    9.6330 C   0  0  0  0  0  0  0  0  0  0  0  0
  -38.5400   37.5080   12.4130 C   0  0  2  0  0  3  0  0  0  0  0  0
  -35.9050   40.9380    8.3480 C   0  0  0  0  0  2  0  0  0  0  0  0
  -38.6220   37.6640   10.9260 C   0  0  0  0  0  3  0  0  0  0  0  0
  -37.4110   42.2200   12.2030 C   0  0  0  0  0  0  0  0  0  0  0  0
  -36.9960   42.6330    9.8290 C   0  0  0  0  0  3  0  0  0  0  0  0
  -37.4500   43.0590   11.0980 C   0  0  0  0  0  3  0  0  0  0  0  0
  -33.4050   40.5250    7.9290 C   0  0  0  0  0  1  0  0  0  0  0  0
  -34.4390   40.4060    9.7460 H   0  0  0  0  0  0  0  0  0  0  0  0
  -37.7410   42.5320   13.4800 O   0  0  0  0  0  0  0  0  0  0  0  0
  -36.9500   43.5240   14.1460 C   0  0  0  0  0  1  0  0  0  0  0  0
  -39.2600   38.5930   12.9970 O   0  0  0  0  0  0  0  0  0  0  0  0
  -38.6320   39.1510   13.5100 H   0  0  0  0  0  0  0  0  0  0  0  0
  2 19  1  0  0  0  0
  3  6  1  6  0  0  0
  3  4  1  0  0  0  0
  4  7  1  1  0  0  0
  4  1  1  0  0  0  0
  5  3  1  0  0  0  0
  5  9  1  0  0  0  0
  8  3  1  0  0  0  0
  8 14  2  0  0  0  0
  9 15  2  0  0  0  0
  9  1  1  0  0  0  0
 10  2  1  0  0  0  0
 10  6  1  0  0  0  0
 11 16  1  0  0  0  0
 11  5  2  0  0  0  0
 12  7  1  0  0  0  0
 12 22  1  1  0  0  0
 13  2  1  0  0  0  0
 13 11  1  0  0  0  0
 14 12  1  0  0  0  0
 15 20  1  0  0  0  0
 16 17  2  0  0  0  0
 17 15  1  0  0  0  0
 18  2  1  0  0  0  0
 20 21  1  0  0  0  0
 22 23  1  0  0  0  0
M  END
>  <MODEL>
14

>  <REMARK>
 VINA RESULT:    -6.353     26.504     29.049
 INTER + INTRA:          -6.989
 INTER:                  -6.885
 INTRA:                  -0.105
 UNBOUND:                -0.079
  2 active torsions:
  status: ('A' for Active; 'I' for Inactive)
    1  A    between atoms: O2_2  and  C10_14 
    2  A    between atoms: O3_3  and  C13_17 

>  <TORSDO>
F 2

$$$$
./Galantamina.pdbqt
 OpenBabel10282519553D

 23 26  0  0  1  0  0  0  0  0999 V2000
  -41.2410   29.9000    5.6940 O   0  0  0  0  0  0  0  0  0  0  0  0
  -43.9800   29.9930    1.8160 N   0  0  0  0  0  4  0  0  0  0  0  0
  -41.5200   30.8040    3.3750 C   0  0  1  0  0  0  0  0  0  0  0  0
  -41.3610   31.1580    4.9080 C   0  0  2  0  0  3  0  0  0  0  0  0
  -41.8010   29.3140    3.5140 C   0  0  0  0  0  0  0  0  0  0  0  0
  -42.5800   31.7960    2.8030 C   0  0  0  0  0  2  0  0  0  0  0  0
  -40.1490   32.0280    5.2610 C   0  0  0  0  0  2  0  0  0  0  0  0
  -40.2900   30.9340    2.5180 C   0  0  0  0  0  3  0  0  0  0  0  0
  -41.4170   28.8930    4.7850 C   0  0  0  0  0  0  0  0  0  0  0  0
  -43.2880   31.3380    1.5380 C   0  0  0  0  0  2  0  0  0  0  0  0
  -42.3280   28.3950    2.5850 C   0  0  0  0  0  0  0  0  0  0  0  0
  -38.8930   31.6670    4.4860 C   0  0  2  0  0  3  0  0  0  0  0  0
  -43.0780   28.8380    1.3700 C   0  0  0  0  0  2  0  0  0  0  0  0
  -39.1280   31.3570    3.0400 C   0  0  0  0  0  3  0  0  0  0  0  0
  -41.3310   27.5210    5.1080 C   0  0  0  0  0  0  0  0  0  0  0  0
  -42.2650   27.0360    2.9020 C   0  0  0  0  0  3  0  0  0  0  0  0
  -41.7300   26.6120    4.1400 C   0  0  0  0  0  3  0  0  0  0  0  0
  -45.3920   29.9490    1.2610 C   0  0  0  0  0  1  0  0  0  0  0  0
  -44.0570   29.9160    2.8750 H   0  0  0  0  0  0  0  0  0  0  0  0
  -40.8780   27.2420    6.3560 O   0  0  0  0  0  0  0  0  0  0  0  0
  -40.5700   25.8760    6.6590 C   0  0  0  0  0  1  0  0  0  0  0  0
  -38.4170   30.4740    5.1070 O   0  0  0  0  0  0  0  0  0  0  0  0
  -37.4560   30.3780    4.9160 H   0  0  0  0  0  0  0  0  0  0  0  0
  2 19  1  0  0  0  0
  3  8  1  6  0  0  0
  3  5  1  0  0  0  0
  3  4  1  0  0  0  0
  4  7  1  6  0  0  0
  4  1  1  0  0  0  0
  5  9  1  0  0  0  0
  6  3  1  0  0  0  0
  8 14  2  0  0  0  0
  9 15  2  0  0  0  0
  9  1  1  0  0  0  0
 10  2  1  0  0  0  0
 10  6  1  0  0  0  0
 11 16  1  0  0  0  0
 11  5  2  0  0  0  0
 12 22  1  1  0  0  0
 12  7  1  0  0  0  0
 13  2  1  0  0  0  0
 13 11  1  0  0  0  0
 14 12  1  0  0  0  0
 15 20  1  0  0  0  0
 16 17  2  0  0  0  0
 17 15  1  0  0  0  0
 18  2  1  0  0  0  0
 20 21  1  0  0  0  0
 23 22  1  0  0  0  0
M  END
>  <MODEL>
15

>  <REMARK>
 VINA RESULT:    -6.307     20.680     22.270
 INTER + INTRA:          -6.940
 INTER:                  -6.860
 INTRA:                  -0.080
 UNBOUND:                -0.079
  2 active torsions:
  status: ('A' for Active; 'I' for Inactive)
    1  A    between atoms: O2_2  and  C10_14 
    2  A    between atoms: O3_3  and  C13_17 

>  <TORSDO>
F 2

$$$$
./Galantamina.pdbqt
 OpenBabel10282519553D

 23 26  0  0  1  0  0  0  0  0999 V2000
  -43.6170   44.9440    3.0460 O   0  0  0  0  0  0  0  0  0  0  0  0
  -45.7710   43.7360    7.1020 N   0  0  0  0  0  4  0  0  0  0  0  0
  -43.5710   45.1080    5.5440 C   0  0  1  0  0  0  0  0  0  0  0  0
  -42.7980   44.6330    4.2490 C   0  0  2  0  0  3  0  0  0  0  0  0
  -44.9370   45.3550    4.9160 C   0  0  0  0  0  0  0  0  0  0  0  0
  -43.3440   44.0010    6.6210 C   0  0  0  0  0  2  0  0  0  0  0  0
  -41.4210   45.2710    4.0340 C   0  0  0  0  0  2  0  0  0  0  0  0
  -43.1350   46.4110    6.1560 C   0  0  0  0  0  3  0  0  0  0  0  0
  -44.7940   45.4400    3.5330 C   0  0  0  0  0  0  0  0  0  0  0  0
  -44.3830   43.9470    7.7310 C   0  0  0  0  0  2  0  0  0  0  0  0
  -46.2010   45.5180    5.5170 C   0  0  0  0  0  0  0  0  0  0  0  0
  -41.3710   46.7480    4.3850 C   0  0  2  0  0  3  0  0  0  0  0  0
  -46.4730   45.0860    6.9220 C   0  0  0  0  0  2  0  0  0  0  0  0
  -42.1170   47.1120    5.6310 C   0  0  0  0  0  3  0  0  0  0  0  0
  -45.8460   45.9090    2.7150 C   0  0  0  0  0  0  0  0  0  0  0  0
  -47.2530   45.9650    4.7140 C   0  0  0  0  0  3  0  0  0  0  0  0
  -47.0550   46.1950    3.3330 C   0  0  0  0  0  3  0  0  0  0  0  0
  -46.5830   42.6900    7.8420 C   0  0  0  0  0  1  0  0  0  0  0  0
  -45.5950   43.3610    6.1210 H   0  0  0  0  0  0  0  0  0  0  0  0
  -45.5580   46.0110    1.3940 O   0  0  0  0  0  0  0  0  0  0  0  0
  -46.6500   45.9360    0.4700 C   0  0  0  0  0  1  0  0  0  0  0  0
  -42.0180   47.3990    3.2930 O   0  0  0  0  0  0  0  0  0  0  0  0
  -42.9920   47.2950    3.3930 H   0  0  0  0  0  0  0  0  0  0  0  0
  1  9  1  0  0  0  0
  1  4  1  0  0  0  0
  2 10  1  0  0  0  0
  2 18  1  0  0  0  0
  3  8  1  1  0  0  0
  3  6  1  0  0  0  0
  4  7  1  6  0  0  0
  4  3  1  0  0  0  0
  5 11  1  0  0  0  0
  5  3  1  0  0  0  0
  6 10  1  0  0  0  0
  7 12  1  0  0  0  0
  9  5  2  0  0  0  0
 11 13  1  0  0  0  0
 12 22  1  6  0  0  0
 12 14  1  0  0  0  0
 13  2  1  0  0  0  0
 14  8  2  0  0  0  0
 15 17  2  0  0  0  0
 15  9  1  0  0  0  0
 16 11  2  0  0  0  0
 17 16  1  0  0  0  0
 19  2  1  0  0  0  0
 20 15  1  0  0  0  0
 21 20  1  0  0  0  0
 22 23  1  0  0  0  0
M  END
>  <MODEL>
16

>  <REMARK>
 VINA RESULT:    -6.301     30.820     32.842
 INTER + INTRA:          -6.933
 INTER:                  -6.848
 INTRA:                  -0.085
 UNBOUND:                -0.079
  2 active torsions:
  status: ('A' for Active; 'I' for Inactive)
    1  A    between atoms: O2_2  and  C10_14 
    2  A    between atoms: O3_3  and  C13_17 

>  <TORSDO>
F 2

$$$$
./Galantamina.pdbqt
 OpenBabel10282519553D

 23 26  0  0  1  0  0  0  0  0999 V2000
  -34.0210   23.4510  -15.7410 O   0  0  0  0  0  0  0  0  0  0  0  0
  -37.5660   20.8900  -17.5900 N   0  0  0  0  0  4  0  0  0  0  0  0
  -34.7000   21.2360  -16.6910 C   0  0  1  0  0  0  0  0  0  0  0  0
  -33.7360   22.4810  -16.8330 C   0  0  2  0  0  3  0  0  0  0  0  0
  -35.6770   21.8190  -15.6780 C   0  0  0  0  0  0  0  0  0  0  0  0
  -35.1410   20.8550  -18.1390 C   0  0  0  0  0  2  0  0  0  0  0  0
  -32.2380   22.1630  -16.7740 C   0  0  0  0  0  2  0  0  0  0  0  0
  -34.1200   19.9960  -16.0680 C   0  0  0  0  0  3  0  0  0  0  0  0
  -35.0980   22.9340  -15.0760 C   0  0  0  0  0  0  0  0  0  0  0  0
  -36.4390   20.0710  -18.2420 C   0  0  0  0  0  2  0  0  0  0  0  0
  -36.9620   21.3850  -15.2970 C   0  0  0  0  0  0  0  0  0  0  0  0
  -31.8790   21.1060  -15.7440 C   0  0  2  0  0  3  0  0  0  0  0  0
  -37.7640   20.4450  -16.1380 C   0  0  0  0  0  2  0  0  0  0  0  0
  -32.8350   19.9550  -15.6810 C   0  0  0  0  0  3  0  0  0  0  0  0
  -35.6680   23.5250  -13.9260 C   0  0  0  0  0  0  0  0  0  0  0  0
  -37.5440   21.9760  -14.1720 C   0  0  0  0  0  3  0  0  0  0  0  0
  -36.8740   23.0080  -13.4760 C   0  0  0  0  0  3  0  0  0  0  0  0
  -38.8300   20.8970  -18.4310 C   0  0  0  0  0  1  0  0  0  0  0  0
  -37.2130   21.8930  -17.5470 H   0  0  0  0  0  0  0  0  0  0  0  0
  -34.9720   24.5610  -13.3960 O   0  0  0  0  0  0  0  0  0  0  0  0
  -34.1490   24.2890  -12.2550 C   0  0  0  0  0  1  0  0  0  0  0  0
  -31.9450   21.7860  -14.4920 O   0  0  0  0  0  0  0  0  0  0  0  0
  -31.0910   22.2500  -14.3370 H   0  0  0  0  0  0  0  0  0  0  0  0
  1  9  1  0  0  0  0
  2 19  1  0  0  0  0
  2 13  1  0  0  0  0
  3  6  1  6  0  0  0
  3  8  1  0  0  0  0
  3  5  1  0  0  0  0
  4  7  1  1  0  0  0
  4  3  1  0  0  0  0
  4  1  1  0  0  0  0
  5 11  2  0  0  0  0
  5  9  1  0  0  0  0
  7 12  1  0  0  0  0
  8 14  2  0  0  0  0
  9 15  2  0  0  0  0
 10  6  1  0  0  0  0
 10  2  1  0  0  0  0
 11 16  1  0  0  0  0
 12 14  1  0  0  0  0
 12 22  1  1  0  0  0
 13 11  1  0  0  0  0
 15 17  1  0  0  0  0
 15 20  1  0  0  0  0
 16 17  2  0  0  0  0
 18  2  1  0  0  0  0
 20 21  1  0  0  0  0
 22 23  1  0  0  0  0
M  END
>  <MODEL>
17

>  <REMARK>
 VINA RESULT:    -6.259     10.760     12.379
 INTER + INTRA:          -6.887
 INTER:                  -6.779
 INTRA:                  -0.108
 UNBOUND:                -0.079
  2 active torsions:
  status: ('A' for Active; 'I' for Inactive)
    1  A    between atoms: O2_2  and  C10_14 
    2  A    between atoms: O3_3  and  C13_17 

>  <TORSDO>
F 2

$$$$
./Galantamina.pdbqt
 OpenBabel10282519553D

 23 26  0  0  1  0  0  0  0  0999 V2000
  -42.0790   33.3030    3.6540 O   0  0  0  0  0  0  0  0  0  0  0  0
  -44.7880   29.7970    5.3610 N   0  0  0  0  0  4  0  0  0  0  0  0
  -43.8680   31.6280    3.1380 C   0  0  1  0  0  0  0  0  0  0  0  0
  -43.4830   33.1620    3.1810 C   0  0  2  0  0  3  0  0  0  0  0  0
  -42.6900   31.0760    3.9290 C   0  0  0  0  0  0  0  0  0  0  0  0
  -45.3350   31.5300    3.6620 C   0  0  0  0  0  2  0  0  0  0  0  0
  -43.5850   33.9040    1.8440 C   0  0  0  0  0  2  0  0  0  0  0  0
  -43.8370   30.9590    1.7920 C   0  0  0  0  0  3  0  0  0  0  0  0
  -41.6800   32.0350    3.9740 C   0  0  0  0  0  0  0  0  0  0  0  0
  -45.7410   30.1720    4.2130 C   0  0  0  0  0  2  0  0  0  0  0  0
  -42.5100   29.8180    4.5380 C   0  0  0  0  0  0  0  0  0  0  0  0
  -43.1050   33.0880    0.6550 C   0  0  2  0  0  3  0  0  0  0  0  0
  -43.6590   28.9080    4.8320 C   0  0  0  0  0  2  0  0  0  0  0  0
  -43.5220   31.6500    0.6850 C   0  0  0  0  0  3  0  0  0  0  0  0
  -40.3810   31.7110    4.4240 C   0  0  0  0  0  0  0  0  0  0  0  0
  -41.2330   29.4930    5.0020 C   0  0  0  0  0  3  0  0  0  0  0  0
  -40.1740   30.4250    4.9030 C   0  0  0  0  0  3  0  0  0  0  0  0
  -45.5290   29.2380    6.5610 C   0  0  0  0  0  1  0  0  0  0  0  0
  -44.3290   30.7060    5.6710 H   0  0  0  0  0  0  0  0  0  0  0  0
  -39.4710   32.7140    4.3540 O   0  0  0  0  0  0  0  0  0  0  0  0
  -38.7230   32.8460    3.1390 C   0  0  0  0  0  1  0  0  0  0  0  0
  -41.6820   33.1230    0.7470 O   0  0  0  0  0  0  0  0  0  0  0  0
  -41.4000   32.5800    1.5190 H   0  0  0  0  0  0  0  0  0  0  0  0
  1  9  1  0  0  0  0
  2 19  1  0  0  0  0
  2 18  1  0  0  0  0
  3  8  1  6  0  0  0
  3  4  1  0  0  0  0
  3  6  1  0  0  0  0
  3  5  1  0  0  0  0
  4  7  1  6  0  0  0
  4  1  1  0  0  0  0
  5  9  2  0  0  0  0
  5 11  1  0  0  0  0
  6 10  1  0  0  0  0
  9 15  1  0  0  0  0
 10  2  1  0  0  0  0
 11 13  1  0  0  0  0
 11 16  2  0  0  0  0
 12 14  1  0  0  0  0
 12 22  1  1  0  0  0
 12  7  1  0  0  0  0
 13  2  1  0  0  0  0
 14  8  2  0  0  0  0
 15 17  2  0  0  0  0
 17 16  1  0  0  0  0
 20 15  1  0  0  0  0
 21 20  1  0  0  0  0
 22 23  1  0  0  0  0
M  END
>  <MODEL>
18

>  <REMARK>
 VINA RESULT:    -6.241     21.315     23.541
 INTER + INTRA:          -6.868
 INTER:                  -6.778
 INTRA:                  -0.090
 UNBOUND:                -0.079
  2 active torsions:
  status: ('A' for Active; 'I' for Inactive)
    1  A    between atoms: O2_2  and  C10_14 
    2  A    between atoms: O3_3  and  C13_17 

>  <TORSDO>
F 2

$$$$
./Galantamina.pdbqt
 OpenBabel10282519553D

 23 26  0  0  1  0  0  0  0  0999 V2000
   -7.2570   38.9040    8.7690 O   0  0  0  0  0  0  0  0  0  0  0  0
   -4.8220   34.8420    8.4230 N   0  0  0  0  0  4  0  0  0  0  0  0
   -4.9880   37.8470    8.7190 C   0  0  1  0  0  0  0  0  0  0  0  0
   -5.9660   38.8820    8.0310 C   0  0  2  0  0  3  0  0  0  0  0  0
   -5.9970   37.1410    9.6160 C   0  0  0  0  0  0  0  0  0  0  0  0
   -4.2500   37.1040    7.5620 C   0  0  0  0  0  2  0  0  0  0  0  0
   -5.4580   40.3260    7.9680 C   0  0  0  0  0  2  0  0  0  0  0  0
   -3.9280   38.4140    9.6230 C   0  0  0  0  0  3  0  0  0  0  0  0
   -7.1420   37.9280    9.7210 C   0  0  0  0  0  0  0  0  0  0  0  0
   -3.6800   35.7410    7.9190 C   0  0  0  0  0  2  0  0  0  0  0  0
   -5.9040   35.9170   10.3060 C   0  0  0  0  0  0  0  0  0  0  0  0
   -4.7290   40.7720    9.2230 C   0  0  2  0  0  3  0  0  0  0  0  0
   -4.8830   34.8830    9.9530 C   0  0  0  0  0  2  0  0  0  0  0  0
   -3.8140   39.7390    9.8050 C   0  0  0  0  0  3  0  0  0  0  0  0
   -8.1390   37.6470   10.6820 C   0  0  0  0  0  0  0  0  0  0  0  0
   -6.8940   35.6200   11.2460 C   0  0  0  0  0  3  0  0  0  0  0  0
   -7.9770   36.5050   11.4530 C   0  0  0  0  0  3  0  0  0  0  0  0
   -4.7610   33.4480    7.8260 C   0  0  0  0  0  1  0  0  0  0  0  0
   -5.7230   35.2920    8.0790 H   0  0  0  0  0  0  0  0  0  0  0  0
   -9.1690   38.5280   10.7300 O   0  0  0  0  0  0  0  0  0  0  0  0
   -9.9140   38.6100   11.9510 C   0  0  0  0  0  1  0  0  0  0  0  0
   -5.7640   41.0100   10.1750 O   0  0  0  0  0  0  0  0  0  0  0  0
   -6.6230   40.7260    9.7870 H   0  0  0  0  0  0  0  0  0  0  0  0
  1  9  1  0  0  0  0
  2 13  1  0  0  0  0
  3  6  1  6  0  0  0
  3  5  1  0  0  0  0
  3  8  1  0  0  0  0
  4  7  1  1  0  0  0
  4  3  1  0  0  0  0
  4  1  1  0  0  0  0
  5  9  2  0  0  0  0
  5 11  1  0  0  0  0
  6 10  1  0  0  0  0
  7 12  1  0  0  0  0
  8 14  2  0  0  0  0
  9 15  1  0  0  0  0
 10  2  1  0  0  0  0
 11 16  2  0  0  0  0
 12 14  1  0  0  0  0
 12 22  1  1  0  0  0
 13 11  1  0  0  0  0
 15 20  1  0  0  0  0
 15 17  2  0  0  0  0
 16 17  1  0  0  0  0
 18  2  1  0  0  0  0
 19  2  1  0  0  0  0
 20 21  1  0  0  0  0
 23 22  1  0  0  0  0
M  END
>  <MODEL>
19

>  <REMARK>
 VINA RESULT:    -6.150     29.039     30.935
 INTER + INTRA:          -6.769
 INTER:                  -6.690
 INTRA:                  -0.079
 UNBOUND:                -0.079
  2 active torsions:
  status: ('A' for Active; 'I' for Inactive)
    1  A    between atoms: O2_2  and  C10_14 
    2  A    between atoms: O3_3  and  C13_17 

>  <TORSDO>
F 2

$$$$
./Galantamina.pdbqt
 OpenBabel10282519553D

 23 26  0  0  1  0  0  0  0  0999 V2000
  -41.2940   31.6140    1.9010 O   0  0  0  0  0  0  0  0  0  0  0  0
  -43.8720   28.6970    4.6200 N   0  0  0  0  0  4  0  0  0  0  0  0
  -41.4600   30.4480    4.1110 C   0  0  1  0  0  0  0  0  0  0  0  0
  -40.6070   30.6420    2.7940 C   0  0  2  0  0  3  0  0  0  0  0  0
  -42.7460   31.1220    3.6500 C   0  0  0  0  0  0  0  0  0  0  0  0
  -41.4010   28.9260    4.4520 C   0  0  0  0  0  2  0  0  0  0  0  0
  -39.1780   31.1540    3.0040 C   0  0  0  0  0  2  0  0  0  0  0  0
  -40.9970   31.1900    5.3340 C   0  0  0  0  0  3  0  0  0  0  0  0
  -42.4760   31.9000    2.5260 C   0  0  0  0  0  0  0  0  0  0  0  0
  -42.5350   28.4080    5.3230 C   0  0  0  0  0  2  0  0  0  0  0  0
  -44.0450   31.0760    4.1930 C   0  0  0  0  0  0  0  0  0  0  0  0
  -39.0650   32.2190    4.0820 C   0  0  2  0  0  3  0  0  0  0  0  0
  -44.4680   30.0060    5.1480 C   0  0  0  0  0  2  0  0  0  0  0  0
  -39.8940   31.9550    5.3000 C   0  0  0  0  0  3  0  0  0  0  0  0
  -43.4190   32.8300    2.0350 C   0  0  0  0  0  0  0  0  0  0  0  0
  -44.9910   31.9790    3.7020 C   0  0  0  0  0  3  0  0  0  0  0  0
  -44.6570   32.8730    2.6590 C   0  0  0  0  0  3  0  0  0  0  0  0
  -44.8130   27.5070    4.6640 C   0  0  0  0  0  1  0  0  0  0  0  0
  -43.6350   28.8720    3.5970 H   0  0  0  0  0  0  0  0  0  0  0  0
  -43.0080   33.5750    0.9780 O   0  0  0  0  0  0  0  0  0  0  0  0
  -43.4380   33.1670   -0.3260 C   0  0  0  0  0  1  0  0  0  0  0  0
  -39.5690   33.4050    3.4700 O   0  0  0  0  0  0  0  0  0  0  0  0
  -38.9170   34.1310    3.6000 H   0  0  0  0  0  0  0  0  0  0  0  0
  1  9  1  0  0  0  0
  1  4  1  0  0  0  0
  2 18  1  0  0  0  0
  2 13  1  0  0  0  0
  2 10  1  0  0  0  0
  3  6  1  1  0  0  0
  3  8  1  0  0  0  0
  4  7  1  1  0  0  0
  4  3  1  0  0  0  0
  5  3  1  0  0  0  0
  5 11  1  0  0  0  0
  6 10  1  0  0  0  0
  7 12  1  0  0  0  0
  9  5  2  0  0  0  0
 11 13  1  0  0  0  0
 12 22  1  6  0  0  0
 12 14  1  0  0  0  0
 14  8  2  0  0  0  0
 15  9  1  0  0  0  0
 15 17  2  0  0  0  0
 16 11  2  0  0  0  0
 17 16  1  0  0  0  0
 19  2  1  0  0  0  0
 20 15  1  0  0  0  0
 21 20  1  0  0  0  0
 22 23  1  0  0  0  0
M  END
>  <MODEL>
20

>  <REMARK>
 VINA RESULT:    -6.145     20.773     23.039
 INTER + INTRA:          -6.764
 INTER:                  -6.678
 INTRA:                  -0.085
 UNBOUND:                -0.079
  2 active torsions:
  status: ('A' for Active; 'I' for Inactive)
    1  A    between atoms: O2_2  and  C10_14 
    2  A    between atoms: O3_3  and  C13_17 

>  <TORSDO>
F 2

$$$$
