./HuperzinaA.pdbqt
 OpenBabel10282519553D

 22 24  0  0  1  0  0  0  0  0999 V2000
  -31.0930   23.0910  -11.1810 O   0  0  0  0  0  0  0  0  0  0  0  0
  -31.3900   22.0460  -13.1460 N   0  0  0  0  0  0  0  0  0  0  0  0
  -34.2460   21.9180  -15.5750 C   0  0  2  0  0  0  0  0  0  0  0  0
  -32.2770   20.9070  -16.6040 C   0  0  2  0  0  3  0  0  0  0  0  0
  -33.7300   20.6870  -16.2810 C   0  0  0  0  0  0  0  0  0  0  0  0
  -34.3210   23.0670  -16.5980 C   0  0  0  0  0  2  0  0  0  0  0  0
  -33.4210   22.2740  -14.3840 C   0  0  0  0  0  0  0  0  0  0  0  0
  -31.5070   20.8540  -15.2670 C   0  0  0  0  0  2  0  0  0  0  0  0
  -32.1420   21.7470  -14.2420 C   0  0  0  0  0  0  0  0  0  0  0  0
  -32.9840   23.2110  -17.2820 C   0  0  0  0  0  0  0  0  0  0  0  0
  -32.0720   22.2310  -17.2810 C   0  0  0  0  0  3  0  0  0  0  0  0
  -34.4260   19.5910  -16.5970 C   0  0  0  0  0  3  0  0  0  0  0  0
  -33.8700   23.2510  -13.4430 C   0  0  0  0  0  3  0  0  0  0  0  0
  -32.7590   24.5180  -17.9500 C   0  0  0  0  0  1  0  0  0  0  0  0
  -33.1320   23.5650  -12.3520 C   0  0  0  0  0  3  0  0  0  0  0  0
  -31.8440   22.9460  -12.1100 C   0  0  0  0  0  0  0  0  0  0  0  0
  -33.8760   18.4110  -17.3110 C   0  0  0  0  0  1  0  0  0  0  0  0
  -30.4520   21.6500  -13.0300 H   0  0  0  0  0  0  0  0  0  0  0  0
  -35.6940   21.6470  -15.0420 N   0  0  0  0  0  4  0  0  0  0  0  0
  -35.9170   20.6410  -15.1030 H   0  0  0  0  0  0  0  0  0  0  0  0
  -36.3700   22.1680  -15.6250 H   0  0  0  0  0  0  0  0  0  0  0  0
  -35.7880   21.9480  -14.0610 H   0  0  0  0  0  0  0  0  0  0  0  0
  2 18  1  0  0  0  0
  2 16  1  0  0  0  0
  3 19  1  1  0  0  0
  3  7  1  0  0  0  0
  4 11  1  1  0  0  0
  4  5  1  0  0  0  0
  4  8  1  0  0  0  0
  5  3  1  0  0  0  0
  6  3  1  0  0  0  0
  7  9  2  0  0  0  0
  7 13  1  0  0  0  0
  8  9  1  0  0  0  0
  9  2  1  0  0  0  0
 10 11  2  0  0  0  0
 10  6  1  0  0  0  0
 12  5  2  0  0  0  0
 13 15  2  0  0  0  0
 14 10  1  0  0  0  0
 15 16  1  0  0  0  0
 16  1  2  0  0  0  0
 17 12  1  0  0  0  0
 19 22  1  0  0  0  0
 20 19  1  0  0  0  0
 21 19  1  0  0  0  0
M  END
>  <MODEL>
1

>  <REMARK>
 VINA RESULT:    -7.779      0.000      0.000
 INTER + INTRA:          -8.006
 INTER:                  -8.006
 INTRA:                   0.000
 UNBOUND:                 0.000
  1 active torsions:
  status: ('A' for Active; 'I' for Inactive)
    1  A    between atoms: N1_2  and  C1_4 

>  <TORSDO>
F 1

$$$$
./HuperzinaA.pdbqt
 OpenBabel10282519553D

 22 24  0  0  1  0  0  0  0  0999 V2000
  -29.8610   20.3470  -13.1140 O   0  0  0  0  0  0  0  0  0  0  0  0
  -31.6130   20.2820  -14.5180 N   0  0  0  0  0  0  0  0  0  0  0  0
  -34.6430   22.4530  -14.9380 C   0  0  2  0  0  0  0  0  0  0  0  0
  -34.4950   20.9140  -16.8270 C   0  0  2  0  0  3  0  0  0  0  0  0
  -35.4020   21.4230  -15.7390 C   0  0  0  0  0  0  0  0  0  0  0  0
  -34.4640   23.7090  -15.8120 C   0  0  0  0  0  2  0  0  0  0  0  0
  -33.3420   21.9280  -14.4300 C   0  0  0  0  0  0  0  0  0  0  0  0
  -33.4120   20.0520  -16.1430 C   0  0  0  0  0  2  0  0  0  0  0  0
  -32.7870   20.7840  -14.9920 C   0  0  0  0  0  0  0  0  0  0  0  0
  -33.8470   23.3130  -17.1310 C   0  0  0  0  0  0  0  0  0  0  0  0
  -33.8690   22.0520  -17.5790 C   0  0  0  0  0  3  0  0  0  0  0  0
  -36.6650   21.0300  -15.5510 C   0  0  0  0  0  3  0  0  0  0  0  0
  -32.5860   22.6520  -13.4570 C   0  0  0  0  0  3  0  0  0  0  0  0
  -33.2140   24.4240  -17.8860 C   0  0  0  0  0  1  0  0  0  0  0  0
  -31.4140   22.1710  -12.9810 C   0  0  0  0  0  3  0  0  0  0  0  0
  -30.8620   20.9180  -13.4590 C   0  0  0  0  0  0  0  0  0  0  0  0
  -37.3750   20.0230  -16.3790 C   0  0  0  0  0  1  0  0  0  0  0  0
  -31.2060   19.4320  -14.9200 H   0  0  0  0  0  0  0  0  0  0  0  0
  -35.4790   22.8550  -13.6760 N   0  0  0  0  0  4  0  0  0  0  0  0
  -35.4690   22.0920  -12.9810 H   0  0  0  0  0  0  0  0  0  0  0  0
  -36.4580   23.0260  -13.9610 H   0  0  0  0  0  0  0  0  0  0  0  0
  -35.0990   23.7070  -13.2380 H   0  0  0  0  0  0  0  0  0  0  0  0
  2 16  1  0  0  0  0
  3  7  1  0  0  0  0
  3 19  1  1  0  0  0
  4 11  1  1  0  0  0
  4  8  1  0  0  0  0
  4  5  1  0  0  0  0
  5 12  2  0  0  0  0
  5  3  1  0  0  0  0
  6  3  1  0  0  0  0
  7 13  1  0  0  0  0
  8  9  1  0  0  0  0
  9  2  1  0  0  0  0
  9  7  2  0  0  0  0
 10  6  1  0  0  0  0
 11 10  2  0  0  0  0
 13 15  2  0  0  0  0
 14 10  1  0  0  0  0
 16  1  2  0  0  0  0
 16 15  1  0  0  0  0
 17 12  1  0  0  0  0
 18  2  1  0  0  0  0
 19 22  1  0  0  0  0
 19 20  1  0  0  0  0
 21 19  1  0  0  0  0
M  END
>  <MODEL>
2

>  <REMARK>
 VINA RESULT:    -7.464      1.711      2.124
 INTER + INTRA:          -7.682
 INTER:                  -7.682
 INTRA:                   0.000
 UNBOUND:                 0.000
  1 active torsions:
  status: ('A' for Active; 'I' for Inactive)
    1  A    between atoms: N1_2  and  C1_4 

>  <TORSDO>
F 1

$$$$
./HuperzinaA.pdbqt
 OpenBabel10282519553D

 22 24  0  0  1  0  0  0  0  0999 V2000
  -38.3830   32.6790    3.7320 O   0  0  0  0  0  0  0  0  0  0  0  0
  -40.2660   33.1600    2.6070 N   0  0  0  0  0  0  0  0  0  0  0  0
  -43.0770   31.0520    1.2930 C   0  0  2  0  0  0  0  0  0  0  0  0
  -43.6990   33.4060    1.1250 C   0  0  2  0  0  3  0  0  0  0  0  0
  -43.5810   32.1200    0.3530 C   0  0  0  0  0  0  0  0  0  0  0  0
  -44.2010   30.7170    2.2910 C   0  0  0  0  0  2  0  0  0  0  0  0
  -41.8130   31.4520    1.9770 C   0  0  0  0  0  0  0  0  0  0  0  0
  -42.2620   33.8890    1.4160 C   0  0  0  0  0  2  0  0  0  0  0  0
  -41.4310   32.7880    2.0060 C   0  0  0  0  0  0  0  0  0  0  0  0
  -44.6850   31.9910    2.9390 C   0  0  0  0  0  0  0  0  0  0  0  0
  -44.4560   33.1960    2.4040 C   0  0  0  0  0  3  0  0  0  0  0  0
  -43.8970   31.9720   -0.9370 C   0  0  0  0  0  3  0  0  0  0  0  0
  -41.0440   30.5010    2.7160 C   0  0  0  0  0  3  0  0  0  0  0  0
  -45.4290   31.8040    4.2120 C   0  0  0  0  0  1  0  0  0  0  0  0
  -39.8880   30.8560    3.3250 C   0  0  0  0  0  3  0  0  0  0  0  0
  -39.3970   32.2190    3.2760 C   0  0  0  0  0  0  0  0  0  0  0  0
  -44.4070   33.0530   -1.8170 C   0  0  0  0  0  1  0  0  0  0  0  0
  -39.9740   34.1420    2.6200 H   0  0  0  0  0  0  0  0  0  0  0  0
  -42.7460   29.7530    0.4800 N   0  0  0  0  0  4  0  0  0  0  0  0
  -42.1640   29.1160    1.0450 H   0  0  0  0  0  0  0  0  0  0  0  0
  -42.2170   30.0140   -0.3690 H   0  0  0  0  0  0  0  0  0  0  0  0
  -43.6080   29.2610    0.2060 H   0  0  0  0  0  0  0  0  0  0  0  0
  2 18  1  0  0  0  0
  2 16  1  0  0  0  0
  3 19  1  6  0  0  0
  3  7  1  0  0  0  0
  3  6  1  0  0  0  0
  4  8  1  1  0  0  0
  4 11  1  0  0  0  0
  5  4  1  0  0  0  0
  5  3  1  0  0  0  0
  6 10  1  0  0  0  0
  7  9  2  0  0  0  0
  7 13  1  0  0  0  0
  8  9  1  0  0  0  0
  9  2  1  0  0  0  0
 10 14  1  0  0  0  0
 11 10  2  0  0  0  0
 12  5  2  0  0  0  0
 13 15  2  0  0  0  0
 16 15  1  0  0  0  0
 16  1  2  0  0  0  0
 17 12  1  0  0  0  0
 19 20  1  0  0  0  0
 21 19  1  0  0  0  0
 22 19  1  0  0  0  0
M  END
>  <MODEL>
3

>  <REMARK>
 VINA RESULT:    -7.413     20.621     22.147
 INTER + INTRA:          -7.630
 INTER:                  -7.630
 INTRA:                   0.000
 UNBOUND:                 0.000
  1 active torsions:
  status: ('A' for Active; 'I' for Inactive)
    1  A    between atoms: N1_2  and  C1_4 

>  <TORSDO>
F 1

$$$$
./HuperzinaA.pdbqt
 OpenBabel10282519553D

 22 24  0  0  1  0  0  0  0  0999 V2000
  -18.1190    0.2420    8.9180 O   0  0  0  0  0  0  0  0  0  0  0  0
  -18.4610   -1.0500   10.7230 N   0  0  0  0  0  0  0  0  0  0  0  0
  -20.9410   -0.9220   13.5340 C   0  0  2  0  0  0  0  0  0  0  0  0
  -19.7470   -3.0490   13.6190 C   0  0  2  0  0  3  0  0  0  0  0  0
  -20.1400   -1.8410   14.4250 C   0  0  0  0  0  0  0  0  0  0  0  0
  -22.3080   -1.5800   13.2670 C   0  0  0  0  0  2  0  0  0  0  0  0
  -20.2180   -0.5860   12.2740 C   0  0  0  0  0  0  0  0  0  0  0  0
  -18.6840   -2.5840   12.6010 C   0  0  0  0  0  2  0  0  0  0  0  0
  -19.1430   -1.3640   11.8600 C   0  0  0  0  0  0  0  0  0  0  0  0
  -22.0930   -2.9800   12.7470 C   0  0  0  0  0  0  0  0  0  0  0  0
  -20.9360   -3.6330   12.9140 C   0  0  0  0  0  3  0  0  0  0  0  0
  -19.8380   -1.6500   15.7130 C   0  0  0  0  0  3  0  0  0  0  0  0
  -20.6890    0.4510   11.4100 C   0  0  0  0  0  3  0  0  0  0  0  0
  -23.2550   -3.5710   12.0370 C   0  0  0  0  0  1  0  0  0  0  0  0
  -20.0270    0.7710   10.2730 C   0  0  0  0  0  3  0  0  0  0  0  0
  -18.8320    0.0570    9.8700 C   0  0  0  0  0  0  0  0  0  0  0  0
  -19.0600   -2.5940   16.5530 C   0  0  0  0  0  1  0  0  0  0  0  0
  -17.6600   -1.6130   10.4210 H   0  0  0  0  0  0  0  0  0  0  0  0
  -21.1920    0.4360   14.2740 N   0  0  0  0  0  4  0  0  0  0  0  0
  -22.0560    0.8800   13.9270 H   0  0  0  0  0  0  0  0  0  0  0  0
  -20.3990    1.0730   14.0860 H   0  0  0  0  0  0  0  0  0  0  0  0
  -21.2790    0.2920   15.2900 H   0  0  0  0  0  0  0  0  0  0  0  0
  1 16  2  0  0  0  0
  2  9  1  0  0  0  0
  3 19  1  1  0  0  0
  3  5  1  0  0  0  0
  4  8  1  6  0  0  0
  4  5  1  0  0  0  0
  5 12  2  0  0  0  0
  6  3  1  0  0  0  0
  7  3  1  0  0  0  0
  9  7  2  0  0  0  0
  9  8  1  0  0  0  0
 10 11  2  0  0  0  0
 10  6  1  0  0  0  0
 11  4  1  0  0  0  0
 12 17  1  0  0  0  0
 13  7  1  0  0  0  0
 14 10  1  0  0  0  0
 15 13  2  0  0  0  0
 16 15  1  0  0  0  0
 16  2  1  0  0  0  0
 18  2  1  0  0  0  0
 19 22  1  0  0  0  0
 20 19  1  0  0  0  0
 21 19  1  0  0  0  0
M  END
>  <MODEL>
4

>  <REMARK>
 VINA RESULT:    -7.094     36.670     38.752
 INTER + INTRA:          -7.301
 INTER:                  -7.301
 INTRA:                   0.000
 UNBOUND:                 0.000
  1 active torsions:
  status: ('A' for Active; 'I' for Inactive)
    1  A    between atoms: N1_2  and  C1_4 

>  <TORSDO>
F 1

$$$$
./HuperzinaA.pdbqt
 OpenBabel10282519553D

 22 24  0  0  1  0  0  0  0  0999 V2000
  -21.0170   -4.5000   13.5170 O   0  0  0  0  0  0  0  0  0  0  0  0
  -21.3400   -2.4920   12.5660 N   0  0  0  0  0  0  0  0  0  0  0  0
  -19.3670    0.6990   12.5800 C   0  0  2  0  0  0  0  0  0  0  0  0
  -21.1390    0.8640   10.9100 C   0  0  2  0  0  3  0  0  0  0  0  0
  -20.5250    1.5430   12.1040 C   0  0  0  0  0  0  0  0  0  0  0  0
  -18.2340    0.8040   11.5420 C   0  0  0  0  0  2  0  0  0  0  0  0
  -19.7670   -0.7140   12.8410 C   0  0  0  0  0  0  0  0  0  0  0  0
  -21.8570   -0.3990   11.4310 C   0  0  0  0  0  2  0  0  0  0  0  0
  -20.9530   -1.2100   12.3120 C   0  0  0  0  0  0  0  0  0  0  0  0
  -18.7790    0.4650   10.1760 C   0  0  0  0  0  0  0  0  0  0  0  0
  -20.0880    0.4980    9.9020 C   0  0  0  0  0  3  0  0  0  0  0  0
  -20.9390    2.7040   12.6210 C   0  0  0  0  0  3  0  0  0  0  0  0
  -18.8900   -1.6140   13.5220 C   0  0  0  0  0  3  0  0  0  0  0  0
  -17.7550    0.0910    9.1680 C   0  0  0  0  0  1  0  0  0  0  0  0
  -19.2550   -2.8930   13.7750 C   0  0  0  0  0  3  0  0  0  0  0  0
  -20.5370   -3.4100   13.3410 C   0  0  0  0  0  0  0  0  0  0  0  0
  -22.0750    3.5070   12.1030 C   0  0  0  0  0  1  0  0  0  0  0  0
  -22.2190   -2.8580   12.1880 H   0  0  0  0  0  0  0  0  0  0  0  0
  -18.8330    1.2640   13.9410 N   0  0  0  0  0  4  0  0  0  0  0  0
  -18.4030    0.5090   14.4990 H   0  0  0  0  0  0  0  0  0  0  0  0
  -19.6250    1.6560   14.4770 H   0  0  0  0  0  0  0  0  0  0  0  0
  -18.1300    2.0000   13.7840 H   0  0  0  0  0  0  0  0  0  0  0  0
  2 16  1  0  0  0  0
  3  7  1  0  0  0  0
  3 19  1  1  0  0  0
  4 11  1  6  0  0  0
  4  8  1  0  0  0  0
  4  5  1  0  0  0  0
  5  3  1  0  0  0  0
  5 12  2  0  0  0  0
  6  3  1  0  0  0  0
  7 13  1  0  0  0  0
  8  9  1  0  0  0  0
  9  2  1  0  0  0  0
  9  7  2  0  0  0  0
 10  6  1  0  0  0  0
 11 10  2  0  0  0  0
 13 15  2  0  0  0  0
 14 10  1  0  0  0  0
 16  1  2  0  0  0  0
 16 15  1  0  0  0  0
 17 12  1  0  0  0  0
 18  2  1  0  0  0  0
 19 21  1  0  0  0  0
 19 20  1  0  0  0  0
 22 19  1  0  0  0  0
M  END
>  <MODEL>
5

>  <REMARK>
 VINA RESULT:    -6.979     35.631     37.738
 INTER + INTRA:          -7.183
 INTER:                  -7.183
 INTRA:                   0.000
 UNBOUND:                 0.000
  1 active torsions:
  status: ('A' for Active; 'I' for Inactive)
    1  A    between atoms: N1_2  and  C1_4 

>  <TORSDO>
F 1

$$$$
./HuperzinaA.pdbqt
 OpenBabel10282519553D

 22 24  0  0  1  0  0  0  0  0999 V2000
  -38.8480   20.2930  -16.1000 O   0  0  0  0  0  0  0  0  0  0  0  0
  -37.0560   21.4130  -15.3420 N   0  0  0  0  0  0  0  0  0  0  0  0
  -33.3710   21.0680  -15.9530 C   0  0  2  0  0  0  0  0  0  0  0  0
  -33.7890   23.1530  -14.7550 C   0  0  2  0  0  3  0  0  0  0  0  0
  -32.9850   21.8820  -14.7410 C   0  0  0  0  0  0  0  0  0  0  0  0
  -32.8190   21.7750  -17.2050 C   0  0  0  0  0  2  0  0  0  0  0  0
  -34.8420   20.8380  -16.0350 C   0  0  0  0  0  0  0  0  0  0  0  0
  -35.2480   22.7660  -14.4290 C   0  0  0  0  0  2  0  0  0  0  0  0
  -35.7120   21.6310  -15.2930 C   0  0  0  0  0  0  0  0  0  0  0  0
  -33.2740   23.2140  -17.2050 C   0  0  0  0  0  0  0  0  0  0  0  0
  -33.7070   23.8250  -16.0950 C   0  0  0  0  0  3  0  0  0  0  0  0
  -32.0760   21.5620  -13.8150 C   0  0  0  0  0  3  0  0  0  0  0  0
  -35.3900   19.8980  -16.9610 C   0  0  0  0  0  3  0  0  0  0  0  0
  -33.2090   23.8930  -18.5240 C   0  0  0  0  0  1  0  0  0  0  0  0
  -36.7240   19.6750  -17.0270 C   0  0  0  0  0  3  0  0  0  0  0  0
  -37.6530   20.4000  -16.1830 C   0  0  0  0  0  0  0  0  0  0  0  0
  -31.7180   22.4070  -12.6480 C   0  0  0  0  0  1  0  0  0  0  0  0
  -37.6990   21.9860  -14.7880 H   0  0  0  0  0  0  0  0  0  0  0  0
  -32.7080   19.6500  -15.8650 N   0  0  0  0  0  4  0  0  0  0  0  0
  -31.7770   19.6610  -16.3080 H   0  0  0  0  0  0  0  0  0  0  0  0
  -33.3020   18.9700  -16.3680 H   0  0  0  0  0  0  0  0  0  0  0  0
  -32.6060   19.3520  -14.8840 H   0  0  0  0  0  0  0  0  0  0  0  0
  2  9  1  0  0  0  0
  2 18  1  0  0  0  0
  3 19  1  1  0  0  0
  3  5  1  0  0  0  0
  4 11  1  6  0  0  0
  4  5  1  0  0  0  0
  4  8  1  0  0  0  0
  5 12  2  0  0  0  0
  6 10  1  0  0  0  0
  6  3  1  0  0  0  0
  7  3  1  0  0  0  0
  7  9  2  0  0  0  0
  9  8  1  0  0  0  0
 10 11  2  0  0  0  0
 12 17  1  0  0  0  0
 13  7  1  0  0  0  0
 14 10  1  0  0  0  0
 15 13  2  0  0  0  0
 15 16  1  0  0  0  0
 16  1  2  0  0  0  0
 16  2  1  0  0  0  0
 19 22  1  0  0  0  0
 20 19  1  0  0  0  0
 21 19  1  0  0  0  0
M  END
>  <MODEL>
6

>  <REMARK>
 VINA RESULT:    -6.841      2.769      4.731
 INTER + INTRA:          -7.041
 INTER:                  -7.041
 INTRA:                   0.000
 UNBOUND:                 0.000
  1 active torsions:
  status: ('A' for Active; 'I' for Inactive)
    1  A    between atoms: N1_2  and  C1_4 

>  <TORSDO>
F 1

$$$$
./HuperzinaA.pdbqt
 OpenBabel10282519553D

 22 24  0  0  1  0  0  0  0  0999 V2000
  -41.7300   26.7760    3.1420 O   0  0  0  0  0  0  0  0  0  0  0  0
  -40.6790   28.7470    3.3770 N   0  0  0  0  0  0  0  0  0  0  0  0
  -41.6910   32.2910    2.6770 C   0  0  2  0  0  0  0  0  0  0  0  0
  -39.6020   32.2910    3.9400 C   0  0  2  0  0  3  0  0  0  0  0  0
  -40.2740   32.8120    2.6980 C   0  0  0  0  0  0  0  0  0  0  0  0
  -42.4840   33.0040    3.7880 C   0  0  0  0  0  2  0  0  0  0  0  0
  -41.7480   30.8050    2.8050 C   0  0  0  0  0  0  0  0  0  0  0  0
  -39.3820   30.7780    3.7300 C   0  0  0  0  0  2  0  0  0  0  0  0
  -40.6450   30.1050    3.2800 C   0  0  0  0  0  0  0  0  0  0  0  0
  -41.7470   32.8590    5.0970 C   0  0  0  0  0  0  0  0  0  0  0  0
  -40.4490   32.5400    5.1530 C   0  0  0  0  0  3  0  0  0  0  0  0
  -39.7000   33.6150    1.7970 C   0  0  0  0  0  3  0  0  0  0  0  0
  -42.9640   30.0930    2.5670 C   0  0  0  0  0  3  0  0  0  0  0  0
  -42.5720   33.0920    6.3100 C   0  0  0  0  0  1  0  0  0  0  0  0
  -43.0170   28.7440    2.6660 C   0  0  0  0  0  3  0  0  0  0  0  0
  -41.8520   27.9700    3.0450 C   0  0  0  0  0  0  0  0  0  0  0  0
  -38.3050   34.1160    1.8720 C   0  0  0  0  0  1  0  0  0  0  0  0
  -39.8650   28.2260    3.7150 H   0  0  0  0  0  0  0  0  0  0  0  0
  -42.3570   32.6410    1.3030 N   0  0  0  0  0  4  0  0  0  0  0  0
  -42.5070   31.7840    0.7480 H   0  0  0  0  0  0  0  0  0  0  0  0
  -41.7270   33.2670    0.7730 H   0  0  0  0  0  0  0  0  0  0  0  0
  -43.2640   33.1090    1.4420 H   0  0  0  0  0  0  0  0  0  0  0  0
  2 18  1  0  0  0  0
  3 19  1  6  0  0  0
  3  5  1  0  0  0  0
  3  7  1  0  0  0  0
  3  6  1  0  0  0  0
  4  8  1  6  0  0  0
  4 11  1  0  0  0  0
  5  4  1  0  0  0  0
  6 10  1  0  0  0  0
  7  9  2  0  0  0  0
  9  2  1  0  0  0  0
  9  8  1  0  0  0  0
 10 11  2  0  0  0  0
 10 14  1  0  0  0  0
 12 17  1  0  0  0  0
 12  5  2  0  0  0  0
 13 15  2  0  0  0  0
 13  7  1  0  0  0  0
 15 16  1  0  0  0  0
 16  1  2  0  0  0  0
 16  2  1  0  0  0  0
 19 22  1  0  0  0  0
 20 19  1  0  0  0  0
 21 19  1  0  0  0  0
M  END
>  <MODEL>
7

>  <REMARK>
 VINA RESULT:    -6.736     21.224     22.615
 INTER + INTRA:          -6.933
 INTER:                  -6.933
 INTRA:                   0.000
 UNBOUND:                 0.000
  1 active torsions:
  status: ('A' for Active; 'I' for Inactive)
    1  A    between atoms: N1_2  and  C1_4 

>  <TORSDO>
F 1

$$$$
./HuperzinaA.pdbqt
 OpenBabel10282519553D

 22 24  0  0  1  0  0  0  0  0999 V2000
  -43.9440   29.9900   -2.7360 O   0  0  0  0  0  0  0  0  0  0  0  0
  -43.1960   30.1110   -0.6230 N   0  0  0  0  0  0  0  0  0  0  0  0
  -43.0360   32.8970    1.8850 C   0  0  2  0  0  0  0  0  0  0  0  0
  -42.5080   30.7900    2.9980 C   0  0  2  0  0  3  0  0  0  0  0  0
  -42.0250   32.1950    2.7600 C   0  0  0  0  0  0  0  0  0  0  0  0
  -44.3100   33.1380    2.7170 C   0  0  0  0  0  2  0  0  0  0  0  0
  -43.3150   32.1440    0.6280 C   0  0  0  0  0  0  0  0  0  0  0  0
  -42.3560   30.0300    1.6620 C   0  0  0  0  0  2  0  0  0  0  0  0
  -42.9680   30.8010    0.5300 C   0  0  0  0  0  0  0  0  0  0  0  0
  -44.7590   31.8330    3.3270 C   0  0  0  0  0  0  0  0  0  0  0  0
  -43.9390   30.7830    3.4510 C   0  0  0  0  0  3  0  0  0  0  0  0
  -40.9030   32.7140    3.2660 C   0  0  0  0  0  3  0  0  0  0  0  0
  -44.0510   32.7430   -0.4410 C   0  0  0  0  0  3  0  0  0  0  0  0
  -46.1760   31.8040    3.7730 C   0  0  0  0  0  1  0  0  0  0  0  0
  -44.2920   32.0690   -1.5900 C   0  0  0  0  0  3  0  0  0  0  0  0
  -43.8400   30.7040   -1.7730 C   0  0  0  0  0  0  0  0  0  0  0  0
  -39.9480   31.9860    4.1390 C   0  0  0  0  0  1  0  0  0  0  0  0
  -42.9300   29.1250   -0.7040 H   0  0  0  0  0  0  0  0  0  0  0  0
  -42.4710   34.2910    1.4470 N   0  0  0  0  0  4  0  0  0  0  0  0
  -43.1910   35.0220    1.5610 H   0  0  0  0  0  0  0  0  0  0  0  0
  -42.2050   34.2470    0.4490 H   0  0  0  0  0  0  0  0  0  0  0  0
  -41.6460   34.5470    2.0090 H   0  0  0  0  0  0  0  0  0  0  0  0
  1 16  2  0  0  0  0
  2  9  1  0  0  0  0
  3 19  1  6  0  0  0
  3  6  1  0  0  0  0
  3  5  1  0  0  0  0
  4  8  1  6  0  0  0
  4 11  1  0  0  0  0
  5  4  1  0  0  0  0
  5 12  2  0  0  0  0
  6 10  1  0  0  0  0
  7  3  1  0  0  0  0
  9  7  2  0  0  0  0
  9  8  1  0  0  0  0
 10 11  2  0  0  0  0
 10 14  1  0  0  0  0
 12 17  1  0  0  0  0
 13  7  1  0  0  0  0
 15 13  2  0  0  0  0
 16 15  1  0  0  0  0
 16  2  1  0  0  0  0
 18  2  1  0  0  0  0
 19 20  1  0  0  0  0
 19 22  1  0  0  0  0
 21 19  1  0  0  0  0
M  END
>  <MODEL>
8

>  <REMARK>
 VINA RESULT:    -6.728     19.445     22.286
 INTER + INTRA:          -6.924
 INTER:                  -6.924
 INTRA:                   0.000
 UNBOUND:                 0.000
  1 active torsions:
  status: ('A' for Active; 'I' for Inactive)
    1  A    between atoms: N1_2  and  C1_4 

>  <TORSDO>
F 1

$$$$
./HuperzinaA.pdbqt
 OpenBabel10282519553D

 22 24  0  0  1  0  0  0  0  0999 V2000
  -38.3720   32.9390    3.2950 O   0  0  0  0  0  0  0  0  0  0  0  0
  -40.3640   31.9140    3.4480 N   0  0  0  0  0  0  0  0  0  0  0  0
  -43.7130   32.5720    1.8910 C   0  0  2  0  0  0  0  0  0  0  0  0
  -43.7580   30.3920    2.9890 C   0  0  2  0  0  3  0  0  0  0  0  0
  -44.4620   31.7180    2.8850 C   0  0  0  0  0  0  0  0  0  0  0  0
  -43.9370   31.9860    0.4850 C   0  0  0  0  0  2  0  0  0  0  0  0
  -42.2650   32.6940    2.2300 C   0  0  0  0  0  0  0  0  0  0  0  0
  -42.4260   30.6480    3.7280 C   0  0  0  0  0  2  0  0  0  0  0  0
  -41.6790   31.7950    3.1130 C   0  0  0  0  0  0  0  0  0  0  0  0
  -43.5800   30.5200    0.4950 C   0  0  0  0  0  0  0  0  0  0  0  0
  -43.5050   29.8110    1.6280 C   0  0  0  0  0  3  0  0  0  0  0  0
  -45.5720   32.0480    3.5530 C   0  0  0  0  0  3  0  0  0  0  0  0
  -41.4310   33.6450    1.5640 C   0  0  0  0  0  3  0  0  0  0  0  0
  -43.3180   29.9280   -0.8420 C   0  0  0  0  0  1  0  0  0  0  0  0
  -40.1210   33.7710    1.8790 C   0  0  0  0  0  3  0  0  0  0  0  0
  -39.5030   32.9270    2.8830 C   0  0  0  0  0  0  0  0  0  0  0  0
  -46.2840   31.1630    4.5080 C   0  0  0  0  0  1  0  0  0  0  0  0
  -39.9310   31.2610    4.1080 H   0  0  0  0  0  0  0  0  0  0  0  0
  -44.2930   34.0280    1.9090 N   0  0  0  0  0  4  0  0  0  0  0  0
  -43.6510   34.6640    2.4050 H   0  0  0  0  0  0  0  0  0  0  0  0
  -45.1990   34.0220    2.4080 H   0  0  0  0  0  0  0  0  0  0  0  0
  -44.4350   34.3800    0.9510 H   0  0  0  0  0  0  0  0  0  0  0  0
  2 18  1  0  0  0  0
  3 19  1  1  0  0  0
  3  7  1  0  0  0  0
  3  5  1  0  0  0  0
  4 11  1  6  0  0  0
  4  8  1  0  0  0  0
  5  4  1  0  0  0  0
  5 12  2  0  0  0  0
  6 10  1  0  0  0  0
  6  3  1  0  0  0  0
  7  9  2  0  0  0  0
  9  2  1  0  0  0  0
  9  8  1  0  0  0  0
 10 11  2  0  0  0  0
 12 17  1  0  0  0  0
 13 15  2  0  0  0  0
 13  7  1  0  0  0  0
 14 10  1  0  0  0  0
 15 16  1  0  0  0  0
 16  1  2  0  0  0  0
 16  2  1  0  0  0  0
 19 20  1  0  0  0  0
 19 21  1  0  0  0  0
 22 19  1  0  0  0  0
M  END
>  <MODEL>
9

>  <REMARK>
 VINA RESULT:    -6.681     19.925     22.496
 INTER + INTRA:          -6.876
 INTER:                  -6.876
 INTRA:                   0.000
 UNBOUND:                 0.000
  1 active torsions:
  status: ('A' for Active; 'I' for Inactive)
    1  A    between atoms: N1_2  and  C1_4 

>  <TORSDO>
F 1

$$$$
./HuperzinaA.pdbqt
 OpenBabel10282519553D

 22 24  0  0  1  0  0  0  0  0999 V2000
  -33.4140   25.9050  -19.3990 O   0  0  0  0  0  0  0  0  0  0  0  0
  -34.7110   24.8060  -17.9320 N   0  0  0  0  0  0  0  0  0  0  0  0
  -34.3020   21.5760  -16.0690 C   0  0  2  0  0  0  0  0  0  0  0  0
  -36.2290   22.7760  -15.1720 C   0  0  2  0  0  3  0  0  0  0  0  0
  -35.7700   21.4590  -15.7350 C   0  0  0  0  0  0  0  0  0  0  0  0
  -33.5110   21.6460  -14.7490 C   0  0  0  0  0  2  0  0  0  0  0  0
  -34.0170   22.7350  -16.9630 C   0  0  0  0  0  0  0  0  0  0  0  0
  -36.2470   23.7830  -16.3420 C   0  0  0  0  0  2  0  0  0  0  0  0
  -34.9520   23.7550  -17.0990 C   0  0  0  0  0  0  0  0  0  0  0  0
  -34.0810   22.7460  -13.8860 C   0  0  0  0  0  0  0  0  0  0  0  0
  -35.3070   23.2450  -14.0840 C   0  0  0  0  0  3  0  0  0  0  0  0
  -36.5450   20.3800  -15.8830 C   0  0  0  0  0  3  0  0  0  0  0  0
  -32.7410   22.8840  -17.5900 C   0  0  0  0  0  3  0  0  0  0  0  0
  -33.1790   23.2290  -12.8100 C   0  0  0  0  0  1  0  0  0  0  0  0
  -32.4830   23.9260  -18.4150 C   0  0  0  0  0  3  0  0  0  0  0  0
  -33.4780   24.9480  -18.6730 C   0  0  0  0  0  0  0  0  0  0  0  0
  -37.9830   20.3090  -15.5210 C   0  0  0  0  0  1  0  0  0  0  0  0
  -35.4020   25.5530  -18.0450 H   0  0  0  0  0  0  0  0  0  0  0  0
  -33.8390   20.2960  -16.8450 N   0  0  0  0  0  4  0  0  0  0  0  0
  -34.1630   20.3330  -17.8240 H   0  0  0  0  0  0  0  0  0  0  0  0
  -34.2520   19.4620  -16.3950 H   0  0  0  0  0  0  0  0  0  0  0  0
  -32.8120   20.2130  -16.8390 H   0  0  0  0  0  0  0  0  0  0  0  0
  1 16  2  0  0  0  0
  2  9  1  0  0  0  0
  3 19  1  6  0  0  0
  3  5  1  0  0  0  0
  3  6  1  0  0  0  0
  4  8  1  6  0  0  0
  4 11  1  0  0  0  0
  5  4  1  0  0  0  0
  6 10  1  0  0  0  0
  7  3  1  0  0  0  0
  9  7  2  0  0  0  0
  9  8  1  0  0  0  0
 10 14  1  0  0  0  0
 11 10  2  0  0  0  0
 12  5  2  0  0  0  0
 12 17  1  0  0  0  0
 13  7  1  0  0  0  0
 15 13  2  0  0  0  0
 16 15  1  0  0  0  0
 16  2  1  0  0  0  0
 18  2  1  0  0  0  0
 19 22  1  0  0  0  0
 19 21  1  0  0  0  0
 20 19  1  0  0  0  0
M  END
>  <MODEL>
10

>  <REMARK>
 VINA RESULT:    -6.655      2.868      4.836
 INTER + INTRA:          -6.850
 INTER:                  -6.850
 INTRA:                   0.000
 UNBOUND:                 0.000
  1 active torsions:
  status: ('A' for Active; 'I' for Inactive)
    1  A    between atoms: N1_2  and  C1_4 

>  <TORSDO>
F 1

$$$$
./HuperzinaA.pdbqt
 OpenBabel10282519553D

 22 24  0  0  1  0  0  0  0  0999 V2000
  -39.1830   23.2180  -13.0690 O   0  0  0  0  0  0  0  0  0  0  0  0
  -36.9930   23.0530  -13.5360 N   0  0  0  0  0  0  0  0  0  0  0  0
  -35.0710   21.2820  -16.2270 C   0  0  2  0  0  0  0  0  0  0  0  0
  -33.5640   22.7760  -15.0210 C   0  0  2  0  0  3  0  0  0  0  0  0
  -33.7570   21.3580  -15.4870 C   0  0  0  0  0  0  0  0  0  0  0  0
  -34.9190   22.0340  -17.5620 C   0  0  0  0  0  2  0  0  0  0  0  0
  -36.2090   21.7990  -15.4120 C   0  0  0  0  0  0  0  0  0  0  0  0
  -34.5830   23.0190  -13.8870 C   0  0  0  0  0  2  0  0  0  0  0  0
  -35.9620   22.5960  -14.3000 C   0  0  0  0  0  0  0  0  0  0  0  0
  -34.3930   23.4230  -17.2930 C   0  0  0  0  0  0  0  0  0  0  0  0
  -33.7820   23.7450  -16.1460 C   0  0  0  0  0  3  0  0  0  0  0  0
  -32.8880   20.3630  -15.2870 C   0  0  0  0  0  3  0  0  0  0  0  0
  -37.5620   21.5960  -15.8250 C   0  0  0  0  0  3  0  0  0  0  0  0
  -34.6090   24.3990  -18.3910 C   0  0  0  0  0  1  0  0  0  0  0  0
  -38.5980   22.0500  -15.0810 C   0  0  0  0  0  3  0  0  0  0  0  0
  -38.3770   22.7840  -13.8510 C   0  0  0  0  0  0  0  0  0  0  0  0
  -31.5970   20.4930  -14.5670 C   0  0  0  0  0  1  0  0  0  0  0  0
  -36.8150   23.6310  -12.7080 H   0  0  0  0  0  0  0  0  0  0  0  0
  -35.4050   19.7850  -16.5480 N   0  0  0  0  0  4  0  0  0  0  0  0
  -36.3850   19.6940  -16.8540 H   0  0  0  0  0  0  0  0  0  0  0  0
  -35.2750   19.2200  -15.6910 H   0  0  0  0  0  0  0  0  0  0  0  0
  -34.7900   19.4220  -17.2910 H   0  0  0  0  0  0  0  0  0  0  0  0
  2 18  1  0  0  0  0
  3 19  1  6  0  0  0
  3  5  1  0  0  0  0
  3  7  1  0  0  0  0
  4 11  1  6  0  0  0
  4  8  1  0  0  0  0
  5 12  2  0  0  0  0
  5  4  1  0  0  0  0
  6 10  1  0  0  0  0
  6  3  1  0  0  0  0
  7  9  2  0  0  0  0
  9  8  1  0  0  0  0
  9  2  1  0  0  0  0
 10 11  2  0  0  0  0
 12 17  1  0  0  0  0
 13  7  1  0  0  0  0
 13 15  2  0  0  0  0
 14 10  1  0  0  0  0
 15 16  1  0  0  0  0
 16  2  1  0  0  0  0
 16  1  2  0  0  0  0
 19 21  1  0  0  0  0
 20 19  1  0  0  0  0
 22 19  1  0  0  0  0
M  END
>  <MODEL>
11

>  <REMARK>
 VINA RESULT:    -6.532      2.944      4.094
 INTER + INTRA:          -6.723
 INTER:                  -6.723
 INTRA:                   0.000
 UNBOUND:                 0.000
  1 active torsions:
  status: ('A' for Active; 'I' for Inactive)
    1  A    between atoms: N1_2  and  C1_4 

>  <TORSDO>
F 1

$$$$
./HuperzinaA.pdbqt
 OpenBabel10282519553D

 22 24  0  0  1  0  0  0  0  0999 V2000
  -44.3840   29.5380    6.3060 O   0  0  0  0  0  0  0  0  0  0  0  0
  -43.8430   29.8690    4.1520 N   0  0  0  0  0  0  0  0  0  0  0  0
  -42.8720   32.9160    2.1910 C   0  0  2  0  0  0  0  0  0  0  0  0
  -42.4720   30.9300    0.8290 C   0  0  2  0  0  3  0  0  0  0  0  0
  -43.1480   32.2740    0.8530 C   0  0  0  0  0  0  0  0  0  0  0  0
  -41.3840   33.3110    2.2400 C   0  0  0  0  0  2  0  0  0  0  0  0
  -43.2610   32.0360    3.3310 C   0  0  0  0  0  0  0  0  0  0  0  0
  -43.2600   30.0150    1.7910 C   0  0  0  0  0  2  0  0  0  0  0  0
  -43.4630   30.6760    3.1220 C   0  0  0  0  0  0  0  0  0  0  0  0
  -40.5390   32.1090    1.8980 C   0  0  0  0  0  0  0  0  0  0  0  0
  -41.0390   31.0430    1.2610 C   0  0  0  0  0  3  0  0  0  0  0  0
  -43.8470   32.7960   -0.1600 C   0  0  0  0  0  3  0  0  0  0  0  0
  -43.3090   32.5410    4.6670 C   0  0  0  0  0  3  0  0  0  0  0  0
  -39.1190   32.1980    2.3250 C   0  0  0  0  0  1  0  0  0  0  0  0
  -43.6780   31.7500    5.7020 C   0  0  0  0  0  3  0  0  0  0  0  0
  -44.0100   30.3530    5.5030 C   0  0  0  0  0  0  0  0  0  0  0  0
  -44.0760   32.1310   -1.4670 C   0  0  0  0  0  1  0  0  0  0  0  0
  -44.0040   28.8690    4.0000 H   0  0  0  0  0  0  0  0  0  0  0  0
  -43.7260   34.2220    2.3320 N   0  0  0  0  0  4  0  0  0  0  0  0
  -43.2930   34.9930    1.8000 H   0  0  0  0  0  0  0  0  0  0  0  0
  -43.7640   34.4940    3.3290 H   0  0  0  0  0  0  0  0  0  0  0  0
  -44.6840   34.0750    1.9820 H   0  0  0  0  0  0  0  0  0  0  0  0
  2 16  1  0  0  0  0
  3  6  1  0  0  0  0
  3 19  1  1  0  0  0
  3  7  1  0  0  0  0
  4  5  1  0  0  0  0
  4 11  1  1  0  0  0
  4  8  1  0  0  0  0
  5  3  1  0  0  0  0
  7 13  1  0  0  0  0
  8  9  1  0  0  0  0
  9  7  2  0  0  0  0
  9  2  1  0  0  0  0
 10  6  1  0  0  0  0
 10 14  1  0  0  0  0
 11 10  2  0  0  0  0
 12  5  2  0  0  0  0
 13 15  2  0  0  0  0
 16 15  1  0  0  0  0
 16  1  2  0  0  0  0
 17 12  1  0  0  0  0
 18  2  1  0  0  0  0
 19 21  1  0  0  0  0
 20 19  1  0  0  0  0
 22 19  1  0  0  0  0
M  END
>  <MODEL>
12

>  <REMARK>
 VINA RESULT:    -6.520     20.997     22.671
 INTER + INTRA:          -6.710
 INTER:                  -6.710
 INTRA:                   0.000
 UNBOUND:                 0.000
  1 active torsions:
  status: ('A' for Active; 'I' for Inactive)
    1  A    between atoms: N1_2  and  C1_4 

>  <TORSDO>
F 1

$$$$
./HuperzinaA.pdbqt
 OpenBabel10282519553D

 22 24  0  0  1  0  0  0  0  0999 V2000
  -43.9650   32.5270   -0.7950 O   0  0  0  0  0  0  0  0  0  0  0  0
  -42.7220   31.5410    0.7940 N   0  0  0  0  0  0  0  0  0  0  0  0
  -41.9740   32.4050    4.3670 C   0  0  2  0  0  0  0  0  0  0  0  0
  -41.1730   30.1450    3.9080 C   0  0  2  0  0  3  0  0  0  0  0  0
  -40.7740   31.4920    4.4490 C   0  0  0  0  0  0  0  0  0  0  0  0
  -43.0070   31.9400    5.4110 C   0  0  0  0  0  2  0  0  0  0  0  0
  -42.5460   32.4640    2.9910 C   0  0  0  0  0  0  0  0  0  0  0  0
  -41.3480   30.3080    2.3820 C   0  0  0  0  0  2  0  0  0  0  0  0
  -42.2240   31.4820    2.0610 C   0  0  0  0  0  0  0  0  0  0  0  0
  -43.2830   30.4700    5.2150 C   0  0  0  0  0  0  0  0  0  0  0  0
  -42.4490   29.6700    4.5390 C   0  0  0  0  0  3  0  0  0  0  0  0
  -39.5660   31.7930    4.9330 C   0  0  0  0  0  3  0  0  0  0  0  0
  -43.5260   33.4450    2.6430 C   0  0  0  0  0  3  0  0  0  0  0  0
  -44.5470   29.9820    5.8250 C   0  0  0  0  0  1  0  0  0  0  0  0
  -44.0360   33.5120    1.3910 C   0  0  0  0  0  3  0  0  0  0  0  0
  -43.6330   32.5760    0.3610 C   0  0  0  0  0  0  0  0  0  0  0  0
  -38.4210   30.8520    5.0080 C   0  0  0  0  0  1  0  0  0  0  0  0
  -42.4780   30.8270    0.1020 H   0  0  0  0  0  0  0  0  0  0  0  0
  -41.5430   33.8680    4.7280 N   0  0  0  0  0  4  0  0  0  0  0  0
  -42.3650   34.4260    5.0060 H   0  0  0  0  0  0  0  0  0  0  0  0
  -41.1160   34.3080    3.8950 H   0  0  0  0  0  0  0  0  0  0  0  0
  -40.8630   33.8720    5.5020 H   0  0  0  0  0  0  0  0  0  0  0  0
  1 16  2  0  0  0  0
  2  9  1  0  0  0  0
  3  5  1  0  0  0  0
  3 19  1  1  0  0  0
  3  6  1  0  0  0  0
  4  8  1  6  0  0  0
  4  5  1  0  0  0  0
  4 11  1  0  0  0  0
  5 12  2  0  0  0  0
  7  3  1  0  0  0  0
  9  8  1  0  0  0  0
  9  7  2  0  0  0  0
 10  6  1  0  0  0  0
 10 14  1  0  0  0  0
 11 10  2  0  0  0  0
 12 17  1  0  0  0  0
 13  7  1  0  0  0  0
 15 13  2  0  0  0  0
 16  2  1  0  0  0  0
 16 15  1  0  0  0  0
 18  2  1  0  0  0  0
 19 20  1  0  0  0  0
 19 22  1  0  0  0  0
 21 19  1  0  0  0  0
M  END
>  <MODEL>
13

>  <REMARK>
 VINA RESULT:    -6.441     21.294     23.317
 INTER + INTRA:          -6.630
 INTER:                  -6.630
 INTRA:                   0.000
 UNBOUND:                 0.000
  1 active torsions:
  status: ('A' for Active; 'I' for Inactive)
    1  A    between atoms: N1_2  and  C1_4 

>  <TORSDO>
F 1

$$$$
./HuperzinaA.pdbqt
 OpenBabel10282519553D

 22 24  0  0  1  0  0  0  0  0999 V2000
  -47.1900   31.4280    4.7340 O   0  0  0  0  0  0  0  0  0  0  0  0
  -45.4880   32.3280    3.5790 N   0  0  0  0  0  0  0  0  0  0  0  0
  -42.6780   30.8460    1.5830 C   0  0  2  0  0  0  0  0  0  0  0  0
  -42.7520   33.2540    1.1910 C   0  0  2  0  0  3  0  0  0  0  0  0
  -41.8580   32.1140    1.5960 C   0  0  0  0  0  0  0  0  0  0  0  0
  -42.9960   30.4920    0.1180 C   0  0  0  0  0  2  0  0  0  0  0  0
  -43.9090   30.9610    2.4180 C   0  0  0  0  0  0  0  0  0  0  0  0
  -43.7310   33.4950    2.3610 C   0  0  0  0  0  2  0  0  0  0  0  0
  -44.3790   32.2140    2.7960 C   0  0  0  0  0  0  0  0  0  0  0  0
  -43.6200   31.6890   -0.5580 C   0  0  0  0  0  0  0  0  0  0  0  0
  -43.5010   32.9280   -0.0670 C   0  0  0  0  0  3  0  0  0  0  0  0
  -40.5590   32.2280    1.8900 C   0  0  0  0  0  3  0  0  0  0  0  0
  -44.6930   29.8090    2.7350 C   0  0  0  0  0  3  0  0  0  0  0  0
  -44.3740   31.3840   -1.8010 C   0  0  0  0  0  1  0  0  0  0  0  0
  -45.8020   29.9060    3.5060 C   0  0  0  0  0  3  0  0  0  0  0  0
  -46.2550   31.1840    4.0170 C   0  0  0  0  0  0  0  0  0  0  0  0
  -39.7910   33.4980    1.8710 C   0  0  0  0  0  1  0  0  0  0  0  0
  -45.8310   33.2480    3.8700 H   0  0  0  0  0  0  0  0  0  0  0  0
  -41.8390   29.6730    2.1950 N   0  0  0  0  0  4  0  0  0  0  0  0
  -41.1020   29.3780    1.5360 H   0  0  0  0  0  0  0  0  0  0  0  0
  -42.4640   28.8680    2.3690 H   0  0  0  0  0  0  0  0  0  0  0  0
  -41.3960   29.9590    3.0800 H   0  0  0  0  0  0  0  0  0  0  0  0
  2 18  1  0  0  0  0
  2 16  1  0  0  0  0
  3  5  1  0  0  0  0
  3 19  1  1  0  0  0
  3  7  1  0  0  0  0
  4 11  1  6  0  0  0
  4  5  1  0  0  0  0
  4  8  1  0  0  0  0
  5 12  2  0  0  0  0
  6  3  1  0  0  0  0
  7 13  1  0  0  0  0
  7  9  2  0  0  0  0
  8  9  1  0  0  0  0
  9  2  1  0  0  0  0
 10 11  2  0  0  0  0
 10  6  1  0  0  0  0
 13 15  2  0  0  0  0
 14 10  1  0  0  0  0
 15 16  1  0  0  0  0
 16  1  2  0  0  0  0
 17 12  1  0  0  0  0
 19 21  1  0  0  0  0
 19 22  1  0  0  0  0
 20 19  1  0  0  0  0
M  END
>  <MODEL>
14

>  <REMARK>
 VINA RESULT:    -6.440     20.488     22.584
 INTER + INTRA:          -6.628
 INTER:                  -6.628
 INTRA:                   0.000
 UNBOUND:                 0.000
  1 active torsions:
  status: ('A' for Active; 'I' for Inactive)
    1  A    between atoms: N1_2  and  C1_4 

>  <TORSDO>
F 1

$$$$
./HuperzinaA.pdbqt
 OpenBabel10282519553D

 22 24  0  0  1  0  0  0  0  0999 V2000
   -9.8520   39.4240   10.8750 O   0  0  0  0  0  0  0  0  0  0  0  0
   -8.5170   37.6250   10.7140 N   0  0  0  0  0  0  0  0  0  0  0  0
   -5.1050   37.0870    9.2510 C   0  0  2  0  0  0  0  0  0  0  0  0
   -5.7410   35.1140   10.5400 C   0  0  2  0  0  3  0  0  0  0  0  0
   -5.2470   35.5850    9.1990 C   0  0  0  0  0  0  0  0  0  0  0  0
   -3.9120   37.4280   10.1640 C   0  0  0  0  0  2  0  0  0  0  0  0
   -6.3630   37.7590    9.6900 C   0  0  0  0  0  0  0  0  0  0  0  0
   -7.2110   35.5700   10.6620 C   0  0  0  0  0  2  0  0  0  0  0  0
   -7.3550   37.0260   10.3320 C   0  0  0  0  0  0  0  0  0  0  0  0
   -4.0890   36.7350   11.4930 C   0  0  0  0  0  0  0  0  0  0  0  0
   -4.9130   35.6930   11.6500 C   0  0  0  0  0  3  0  0  0  0  0  0
   -4.9690   34.7870    8.1640 C   0  0  0  0  0  3  0  0  0  0  0  0
   -6.5190   39.1750    9.5760 C   0  0  0  0  0  3  0  0  0  0  0  0
   -3.2840   37.3000   12.6060 C   0  0  0  0  0  1  0  0  0  0  0  0
   -7.6650   39.7860    9.9580 C   0  0  0  0  0  3  0  0  0  0  0  0
   -8.7680   39.0360   10.5240 C   0  0  0  0  0  0  0  0  0  0  0  0
   -5.1080   33.3090    8.1680 C   0  0  0  0  0  1  0  0  0  0  0  0
   -9.2560   37.0870   11.1770 H   0  0  0  0  0  0  0  0  0  0  0  0
   -4.7910   37.6340    7.8170 N   0  0  0  0  0  4  0  0  0  0  0  0
   -5.6330   38.0650    7.4050 H   0  0  0  0  0  0  0  0  0  0  0  0
   -4.4990   36.8460    7.2130 H   0  0  0  0  0  0  0  0  0  0  0  0
   -4.0390   38.3370    7.8470 H   0  0  0  0  0  0  0  0  0  0  0  0
  2 18  1  0  0  0  0
  3 19  1  6  0  0  0
  3  7  1  0  0  0  0
  3  6  1  0  0  0  0
  4  8  1  1  0  0  0
  4 11  1  0  0  0  0
  5  3  1  0  0  0  0
  5  4  1  0  0  0  0
  6 10  1  0  0  0  0
  7  9  2  0  0  0  0
  9  8  1  0  0  0  0
  9  2  1  0  0  0  0
 10 11  2  0  0  0  0
 10 14  1  0  0  0  0
 12 17  1  0  0  0  0
 12  5  2  0  0  0  0
 13  7  1  0  0  0  0
 13 15  2  0  0  0  0
 15 16  1  0  0  0  0
 16  2  1  0  0  0  0
 16  1  2  0  0  0  0
 19 22  1  0  0  0  0
 20 19  1  0  0  0  0
 21 19  1  0  0  0  0
M  END
>  <MODEL>
15

>  <REMARK>
 VINA RESULT:    -6.405     38.319     40.032
 INTER + INTRA:          -6.592
 INTER:                  -6.592
 INTRA:                   0.000
 UNBOUND:                 0.000
  1 active torsions:
  status: ('A' for Active; 'I' for Inactive)
    1  A    between atoms: N1_2  and  C1_4 

>  <TORSDO>
F 1

$$$$
./HuperzinaA.pdbqt
 OpenBabel10282519553D

 22 24  0  0  1  0  0  0  0  0999 V2000
  -32.7900   24.5440  -20.4190 O   0  0  0  0  0  0  0  0  0  0  0  0
  -32.4930   23.2690  -18.5940 N   0  0  0  0  0  0  0  0  0  0  0  0
  -34.3030   23.0230  -15.3170 C   0  0  2  0  0  0  0  0  0  0  0  0
  -32.7410   21.1580  -15.5080 C   0  0  2  0  0  3  0  0  0  0  0  0
  -33.1740   22.2970  -14.6260 C   0  0  0  0  0  0  0  0  0  0  0  0
  -35.5480   22.1150  -15.2940 C   0  0  0  0  0  2  0  0  0  0  0  0
  -33.9390   23.4480  -16.7000 C   0  0  0  0  0  0  0  0  0  0  0  0
  -32.0220   21.7800  -16.7250 C   0  0  0  0  0  2  0  0  0  0  0  0
  -32.8490   22.8700  -17.3410 C   0  0  0  0  0  0  0  0  0  0  0  0
  -35.1880   20.7640  -15.8600 C   0  0  0  0  0  0  0  0  0  0  0  0
  -33.9210   20.3420  -15.9490 C   0  0  0  0  0  3  0  0  0  0  0  0
  -32.6480   22.5810  -13.4310 C   0  0  0  0  0  3  0  0  0  0  0  0
  -34.7680   24.3520  -17.4340 C   0  0  0  0  0  3  0  0  0  0  0  0
  -36.3420   19.9450  -16.3110 C   0  0  0  0  0  1  0  0  0  0  0  0
  -34.4330   24.7530  -18.6840 C   0  0  0  0  0  3  0  0  0  0  0  0
  -33.2370   24.2600  -19.3380 C   0  0  0  0  0  0  0  0  0  0  0  0
  -31.5480   21.8240  -12.7840 C   0  0  0  0  0  1  0  0  0  0  0  0
  -31.6840   22.8550  -19.0650 H   0  0  0  0  0  0  0  0  0  0  0  0
  -34.6430   24.3340  -14.5290 N   0  0  0  0  0  4  0  0  0  0  0  0
  -35.5700   24.2540  -14.0840 H   0  0  0  0  0  0  0  0  0  0  0  0
  -34.6650   25.1280  -15.1910 H   0  0  0  0  0  0  0  0  0  0  0  0
  -33.9400   24.5180  -13.7990 H   0  0  0  0  0  0  0  0  0  0  0  0
  1 16  2  0  0  0  0
  2  9  1  0  0  0  0
  3  6  1  0  0  0  0
  3  5  1  0  0  0  0
  3 19  1  1  0  0  0
  4  8  1  6  0  0  0
  4  5  1  0  0  0  0
  5 12  2  0  0  0  0
  7  3  1  0  0  0  0
  9  8  1  0  0  0  0
  9  7  2  0  0  0  0
 10  6  1  0  0  0  0
 11 10  2  0  0  0  0
 11  4  1  0  0  0  0
 12 17  1  0  0  0  0
 13  7  1  0  0  0  0
 14 10  1  0  0  0  0
 15 13  2  0  0  0  0
 16 15  1  0  0  0  0
 16  2  1  0  0  0  0
 18  2  1  0  0  0  0
 19 20  1  0  0  0  0
 19 22  1  0  0  0  0
 21 19  1  0  0  0  0
M  END
>  <MODEL>
16

>  <REMARK>
 VINA RESULT:    -6.369      2.868      4.716
 INTER + INTRA:          -6.555
 INTER:                  -6.555
 INTRA:                   0.000
 UNBOUND:                 0.000
  1 active torsions:
  status: ('A' for Active; 'I' for Inactive)
    1  A    between atoms: N1_2  and  C1_4 

>  <TORSDO>
F 1

$$$$
./HuperzinaA.pdbqt
 OpenBabel10282519553D

 22 24  0  0  1  0  0  0  0  0999 V2000
  -45.1250   30.8590    6.8620 O   0  0  0  0  0  0  0  0  0  0  0  0
  -43.6890   31.9360    5.5120 N   0  0  0  0  0  0  0  0  0  0  0  0
  -41.3740   30.7870    2.7930 C   0  0  2  0  0  0  0  0  0  0  0  0
  -41.4980   33.2250    2.7580 C   0  0  2  0  0  3  0  0  0  0  0  0
  -40.5530   32.0550    2.8090 C   0  0  0  0  0  0  0  0  0  0  0  0
  -41.9940   30.6300    1.3920 C   0  0  0  0  0  2  0  0  0  0  0  0
  -42.4030   30.7670    3.8730 C   0  0  0  0  0  0  0  0  0  0  0  0
  -42.2090   33.2880    4.1270 C   0  0  0  0  0  2  0  0  0  0  0  0
  -42.7680   31.9480    4.5080 C   0  0  0  0  0  0  0  0  0  0  0  0
  -42.7300   31.8970    1.0300 C   0  0  0  0  0  0  0  0  0  0  0  0
  -42.4970   33.0600    1.6500 C   0  0  0  0  0  3  0  0  0  0  0  0
  -39.2210   32.1490    2.8390 C   0  0  0  0  0  3  0  0  0  0  0  0
  -43.1170   29.5690    4.1860 C   0  0  0  0  0  3  0  0  0  0  0  0
  -43.7300   31.7520   -0.0590 C   0  0  0  0  0  1  0  0  0  0  0  0
  -44.0410   29.5420    5.1760 C   0  0  0  0  0  3  0  0  0  0  0  0
  -44.3620   30.7310    5.9390 C   0  0  0  0  0  0  0  0  0  0  0  0
  -38.4580   33.4220    2.8350 C   0  0  0  0  0  1  0  0  0  0  0  0
  -43.9530   32.8030    5.9910 H   0  0  0  0  0  0  0  0  0  0  0  0
  -40.4400   29.5560    3.0510 N   0  0  0  0  0  4  0  0  0  0  0  0
  -40.6880   29.0980    3.9420 H   0  0  0  0  0  0  0  0  0  0  0  0
  -39.4610   29.8830    3.1130 H   0  0  0  0  0  0  0  0  0  0  0  0
  -40.5200   28.8660    2.2900 H   0  0  0  0  0  0  0  0  0  0  0  0
  2 16  1  0  0  0  0
  2 18  1  0  0  0  0
  3  5  1  0  0  0  0
  3 19  1  1  0  0  0
  3  7  1  0  0  0  0
  4 11  1  6  0  0  0
  4  5  1  0  0  0  0
  4  8  1  0  0  0  0
  5 12  2  0  0  0  0
  6  3  1  0  0  0  0
  7 13  1  0  0  0  0
  7  9  2  0  0  0  0
  8  9  1  0  0  0  0
  9  2  1  0  0  0  0
 10  6  1  0  0  0  0
 10 11  2  0  0  0  0
 13 15  2  0  0  0  0
 14 10  1  0  0  0  0
 15 16  1  0  0  0  0
 16  1  2  0  0  0  0
 17 12  1  0  0  0  0
 19 21  1  0  0  0  0
 19 20  1  0  0  0  0
 22 19  1  0  0  0  0
M  END
>  <MODEL>
17

>  <REMARK>
 VINA RESULT:    -6.275     21.227     23.077
 INTER + INTRA:          -6.459
 INTER:                  -6.459
 INTRA:                   0.000
 UNBOUND:                 0.000
  1 active torsions:
  status: ('A' for Active; 'I' for Inactive)
    1  A    between atoms: N1_2  and  C1_4 

>  <TORSDO>
F 1

$$$$
./HuperzinaA.pdbqt
 OpenBabel10282519553D

 22 24  0  0  1  0  0  0  0  0999 V2000
  -41.6180   25.6040    3.4830 O   0  0  0  0  0  0  0  0  0  0  0  0
  -41.6530   27.7810    2.9320 N   0  0  0  0  0  0  0  0  0  0  0  0
  -42.1750   30.9200    4.9180 C   0  0  2  0  0  0  0  0  0  0  0  0
  -41.4010   31.5120    2.6800 C   0  0  2  0  0  3  0  0  0  0  0  0
  -42.4740   31.7660    3.7040 C   0  0  0  0  0  0  0  0  0  0  0  0
  -40.9300   31.4990    5.6160 C   0  0  0  0  0  2  0  0  0  0  0  0
  -42.0120   29.4780    4.5750 C   0  0  0  0  0  0  0  0  0  0  0  0
  -41.6270   30.0840    2.1380 C   0  0  0  0  0  2  0  0  0  0  0  0
  -41.7780   29.0980    3.2590 C   0  0  0  0  0  0  0  0  0  0  0  0
  -39.8120   31.6290    4.6110 C   0  0  0  0  0  0  0  0  0  0  0  0
  -40.0360   31.6360    3.2910 C   0  0  0  0  0  3  0  0  0  0  0  0
  -43.4920   32.6170    3.5480 C   0  0  0  0  0  3  0  0  0  0  0  0
  -41.9660   28.4790    5.5970 C   0  0  0  0  0  3  0  0  0  0  0  0
  -38.4520   31.7430    5.1960 C   0  0  0  0  0  1  0  0  0  0  0  0
  -41.8340   27.1670    5.2900 C   0  0  0  0  0  3  0  0  0  0  0  0
  -41.7060   26.7240    3.9160 C   0  0  0  0  0  0  0  0  0  0  0  0
  -43.7330   33.4430    2.3380 C   0  0  0  0  0  1  0  0  0  0  0  0
  -41.4920   27.4960    1.9610 H   0  0  0  0  0  0  0  0  0  0  0  0
  -43.3760   31.0020    5.9210 N   0  0  0  0  0  4  0  0  0  0  0  0
  -43.9550   31.8310    5.7210 H   0  0  0  0  0  0  0  0  0  0  0  0
  -43.0050   31.0860    6.8830 H   0  0  0  0  0  0  0  0  0  0  0  0
  -43.9680   30.1610    5.8570 H   0  0  0  0  0  0  0  0  0  0  0  0
  1 16  2  0  0  0  0
  2  9  1  0  0  0  0
  2 16  1  0  0  0  0
  3  6  1  0  0  0  0
  3 19  1  1  0  0  0
  4  8  1  1  0  0  0
  4 11  1  0  0  0  0
  4  5  1  0  0  0  0
  5  3  1  0  0  0  0
  7  3  1  0  0  0  0
  7 13  1  0  0  0  0
  8  9  1  0  0  0  0
  9  7  2  0  0  0  0
 10 14  1  0  0  0  0
 10  6  1  0  0  0  0
 11 10  2  0  0  0  0
 12  5  2  0  0  0  0
 15 13  2  0  0  0  0
 16 15  1  0  0  0  0
 17 12  1  0  0  0  0
 18  2  1  0  0  0  0
 19 21  1  0  0  0  0
 20 19  1  0  0  0  0
 22 19  1  0  0  0  0
M  END
>  <MODEL>
18

>  <REMARK>
 VINA RESULT:    -6.205     21.081     22.931
 INTER + INTRA:          -6.387
 INTER:                  -6.387
 INTRA:                   0.000
 UNBOUND:                 0.000
  1 active torsions:
  status: ('A' for Active; 'I' for Inactive)
    1  A    between atoms: N1_2  and  C1_4 

>  <TORSDO>
F 1

$$$$
./HuperzinaA.pdbqt
 OpenBabel10282519553D

 22 24  0  0  1  0  0  0  0  0999 V2000
  -38.1180   33.5640    2.6390 O   0  0  0  0  0  0  0  0  0  0  0  0
  -40.0190   32.5150    2.0650 N   0  0  0  0  0  0  0  0  0  0  0  0
  -41.7980   29.5060    3.4260 C   0  0  2  0  0  0  0  0  0  0  0  0
  -43.2590   30.6460    1.8370 C   0  0  2  0  0  3  0  0  0  0  0  0
  -42.6480   29.3170    2.1920 C   0  0  0  0  0  0  0  0  0  0  0  0
  -42.7340   29.7520    4.6240 C   0  0  0  0  0  2  0  0  0  0  0  0
  -40.7930   30.5950    3.2590 C   0  0  0  0  0  0  0  0  0  0  0  0
  -42.1160   31.5380    1.3050 C   0  0  0  0  0  2  0  0  0  0  0  0
  -40.9440   31.5310    2.2410 C   0  0  0  0  0  0  0  0  0  0  0  0
  -43.6770   30.8830    4.2940 C   0  0  0  0  0  0  0  0  0  0  0  0
  -43.9070   31.2750    3.0350 C   0  0  0  0  0  3  0  0  0  0  0  0
  -42.8560   28.1770    1.5260 C   0  0  0  0  0  3  0  0  0  0  0  0
  -39.7380   30.7750    4.2060 C   0  0  0  0  0  3  0  0  0  0  0  0
  -44.3210   31.5250    5.4670 C   0  0  0  0  0  1  0  0  0  0  0  0
  -38.8150   31.7530    4.0500 C   0  0  0  0  0  3  0  0  0  0  0  0
  -38.8740   32.6750    2.9330 C   0  0  0  0  0  0  0  0  0  0  0  0
  -43.7180   28.0400    0.3250 C   0  0  0  0  0  1  0  0  0  0  0  0
  -40.1200   33.1990    1.3090 H   0  0  0  0  0  0  0  0  0  0  0  0
  -40.9840   28.1960    3.7060 N   0  0  0  0  0  4  0  0  0  0  0  0
  -40.5210   27.8700    2.8440 H   0  0  0  0  0  0  0  0  0  0  0  0
  -41.6340   27.4580    4.0270 H   0  0  0  0  0  0  0  0  0  0  0  0
  -40.2670   28.3550    4.4280 H   0  0  0  0  0  0  0  0  0  0  0  0
  1 16  2  0  0  0  0
  2  9  1  0  0  0  0
  2 16  1  0  0  0  0
  3 19  1  1  0  0  0
  3  6  1  0  0  0  0
  4  8  1  1  0  0  0
  4  5  1  0  0  0  0
  4 11  1  0  0  0  0
  5  3  1  0  0  0  0
  7  3  1  0  0  0  0
  7 13  1  0  0  0  0
  8  9  1  0  0  0  0
  9  7  2  0  0  0  0
 10  6  1  0  0  0  0
 10 14  1  0  0  0  0
 11 10  2  0  0  0  0
 12  5  2  0  0  0  0
 15 13  2  0  0  0  0
 16 15  1  0  0  0  0
 17 12  1  0  0  0  0
 18  2  1  0  0  0  0
 19 21  1  0  0  0  0
 19 22  1  0  0  0  0
 20 19  1  0  0  0  0
M  END
>  <MODEL>
19

>  <REMARK>
 VINA RESULT:    -6.172     20.155     22.087
 INTER + INTRA:          -6.353
 INTER:                  -6.353
 INTRA:                   0.000
 UNBOUND:                 0.000
  1 active torsions:
  status: ('A' for Active; 'I' for Inactive)
    1  A    between atoms: N1_2  and  C1_4 

>  <TORSDO>
F 1

$$$$
./HuperzinaA.pdbqt
 OpenBabel10282519553D

 22 24  0  0  1  0  0  0  0  0999 V2000
  -38.1640   35.4550   12.7560 O   0  0  0  0  0  0  0  0  0  0  0  0
  -36.5670   36.8660   12.0490 N   0  0  0  0  0  0  0  0  0  0  0  0
  -36.6670   40.1890   10.3120 C   0  0  2  0  0  0  0  0  0  0  0  0
  -34.3860   39.7480   11.0610 C   0  0  2  0  0  3  0  0  0  0  0  0
  -35.2250   40.1210    9.8690 C   0  0  0  0  0  0  0  0  0  0  0  0
  -36.8370   41.4240   11.2160 C   0  0  0  0  0  2  0  0  0  0  0  0
  -37.1120   38.9320   10.9820 C   0  0  0  0  0  0  0  0  0  0  0  0
  -34.6910   38.2690   11.3810 C   0  0  0  0  0  2  0  0  0  0  0  0
  -36.1700   38.0270   11.4590 C   0  0  0  0  0  0  0  0  0  0  0  0
  -35.8090   41.3780   12.3200 C   0  0  0  0  0  0  0  0  0  0  0  0
  -34.7080   40.6220   12.2380 C   0  0  0  0  0  3  0  0  0  0  0  0
  -34.7480   40.3670    8.6450 C   0  0  0  0  0  3  0  0  0  0  0  0
  -38.4940   38.6950   11.2580 C   0  0  0  0  0  3  0  0  0  0  0  0
  -36.1150   42.2290   13.4980 C   0  0  0  0  0  1  0  0  0  0  0  0
  -38.9040   37.5490   11.8510 C   0  0  0  0  0  3  0  0  0  0  0  0
  -37.9570   36.5290   12.2560 C   0  0  0  0  0  0  0  0  0  0  0  0
  -33.3150   40.3040    8.2630 C   0  0  0  0  0  1  0  0  0  0  0  0
  -35.8760   36.1900   12.3910 H   0  0  0  0  0  0  0  0  0  0  0  0
  -37.5910   40.3720    9.0600 N   0  0  0  0  0  4  0  0  0  0  0  0
  -37.1140   40.9380    8.3420 H   0  0  0  0  0  0  0  0  0  0  0  0
  -38.4530   40.8660    9.3480 H   0  0  0  0  0  0  0  0  0  0  0  0
  -37.8420   39.4600    8.6510 H   0  0  0  0  0  0  0  0  0  0  0  0
  2 16  1  0  0  0  0
  2 18  1  0  0  0  0
  3 19  1  6  0  0  0
  3  7  1  0  0  0  0
  3  6  1  0  0  0  0
  4  8  1  1  0  0  0
  4 11  1  0  0  0  0
  5  3  1  0  0  0  0
  5  4  1  0  0  0  0
  6 10  1  0  0  0  0
  7 13  1  0  0  0  0
  7  9  2  0  0  0  0
  8  9  1  0  0  0  0
  9  2  1  0  0  0  0
 10 14  1  0  0  0  0
 11 10  2  0  0  0  0
 12  5  2  0  0  0  0
 13 15  2  0  0  0  0
 15 16  1  0  0  0  0
 16  1  2  0  0  0  0
 17 12  1  0  0  0  0
 19 21  1  0  0  0  0
 20 19  1  0  0  0  0
 22 19  1  0  0  0  0
M  END
>  <MODEL>
20

>  <REMARK>
 VINA RESULT:    -6.107     30.037     31.846
 INTER + INTRA:          -6.285
 INTER:                  -6.285
 INTRA:                   0.000
 UNBOUND:                 0.000
  1 active torsions:
  status: ('A' for Active; 'I' for Inactive)
    1  A    between atoms: N1_2  and  C1_4 

>  <TORSDO>
F 1

$$$$
