./Isatina.pdbqt
 OpenBabel10282519553D

 11 12  0  0  0  0  0  0  0  0999 V2000
  -25.9490   23.2210  -10.8810 O   0  0  0  0  0  0  0  0  0  0  0  0
  -26.3330   20.4720   -9.7910 O   0  0  0  0  0  0  0  0  0  0  0  0
  -25.2820   21.3640   -7.9050 N   0  0  0  0  0  2  0  0  0  0  0  0
  -24.9370   23.5540   -8.7160 C   0  0  0  0  0  0  0  0  0  0  0  0
  -24.7840   22.6040   -7.6350 C   0  0  0  0  0  0  0  0  0  0  0  0
  -25.6100   22.8420   -9.7960 C   0  0  0  0  0  0  0  0  0  0  0  0
  -25.8100   21.3750   -9.1910 C   0  0  0  0  0  0  0  0  0  0  0  0
  -24.4760   24.8480   -8.6000 C   0  0  0  0  0  3  0  0  0  0  0  0
  -24.1550   23.0280   -6.4410 C   0  0  0  0  0  3  0  0  0  0  0  0
  -23.8570   25.2480   -7.4160 C   0  0  0  0  0  3  0  0  0  0  0  0
  -23.7080   24.3340   -6.3590 C   0  0  0  0  0  3  0  0  0  0  0  0
  1  6  2  0  0  0  0
  2  7  2  0  0  0  0
  3  5  1  0  0  0  0
  4  8  2  0  0  0  0
  4  5  1  0  0  0  0
  5  9  2  0  0  0  0
  6  7  1  0  0  0  0
  6  4  1  0  0  0  0
  7  3  1  0  0  0  0
  8 10  1  0  0  0  0
  9 11  1  0  0  0  0
 10 11  2  0  0  0  0
M  END
>  <MODEL>
1

>  <REMARK>
 VINA RESULT:    -6.897      0.000      0.000
 INTER + INTRA:          -6.897
 INTER:                  -6.897
 INTRA:                   0.000
 UNBOUND:                 0.000
  0 active torsions:
  status: ('A' for Active; 'I' for Inactive)

>  <TORSDO>
F 0

$$$$
./Isatina.pdbqt
 OpenBabel10282519553D

 11 12  0  0  0  0  0  0  0  0999 V2000
  -25.3930   20.6670   -7.8970 O   0  0  0  0  0  0  0  0  0  0  0  0
  -26.1740   21.5830  -10.6250 O   0  0  0  0  0  0  0  0  0  0  0  0
  -25.2980   23.6220   -9.8990 N   0  0  0  0  0  2  0  0  0  0  0  0
  -24.6690   22.9630   -7.7220 C   0  0  0  0  0  0  0  0  0  0  0  0
  -24.7400   24.0100   -8.7170 C   0  0  0  0  0  0  0  0  0  0  0  0
  -25.2440   21.7720   -8.3370 C   0  0  0  0  0  0  0  0  0  0  0  0
  -25.6520   22.2820   -9.7970 C   0  0  0  0  0  0  0  0  0  0  0  0
  -24.1380   23.1990   -6.4720 C   0  0  0  0  0  3  0  0  0  0  0  0
  -24.2440   25.2940   -8.3890 C   0  0  0  0  0  3  0  0  0  0  0  0
  -23.6560   24.4720   -6.1650 C   0  0  0  0  0  3  0  0  0  0  0  0
  -23.7170   25.4950   -7.1270 C   0  0  0  0  0  3  0  0  0  0  0  0
  2  7  2  0  0  0  0
  3  7  1  0  0  0  0
  3  5  1  0  0  0  0
  4  8  1  0  0  0  0
  5  9  1  0  0  0  0
  5  4  2  0  0  0  0
  6  1  2  0  0  0  0
  6  4  1  0  0  0  0
  7  6  1  0  0  0  0
  8 10  2  0  0  0  0
  9 11  2  0  0  0  0
 11 10  1  0  0  0  0
M  END
>  <MODEL>
2

>  <REMARK>
 VINA RESULT:    -6.857      1.279      2.264
 INTER + INTRA:          -6.857
 INTER:                  -6.857
 INTRA:                   0.000
 UNBOUND:                 0.000
  0 active torsions:
  status: ('A' for Active; 'I' for Inactive)

>  <TORSDO>
F 0

$$$$
./Isatina.pdbqt
 OpenBabel10282519553D

 11 12  0  0  0  0  0  0  0  0999 V2000
  -33.1000   25.3570  -10.6170 O   0  0  0  0  0  0  0  0  0  0  0  0
  -30.4590   24.4210   -9.5970 O   0  0  0  0  0  0  0  0  0  0  0  0
  -30.6140   22.9060  -11.3670 N   0  0  0  0  0  2  0  0  0  0  0  0
  -32.7080   23.5910  -12.2140 C   0  0  0  0  0  0  0  0  0  0  0  0
  -31.5720   22.7000  -12.3150 C   0  0  0  0  0  0  0  0  0  0  0  0
  -32.4450   24.4640  -11.0760 C   0  0  0  0  0  0  0  0  0  0  0  0
  -31.0270   23.9490  -10.5470 C   0  0  0  0  0  0  0  0  0  0  0  0
  -33.7640   23.5040  -13.0960 C   0  0  0  0  0  3  0  0  0  0  0  0
  -31.5560   21.7330  -13.3470 C   0  0  0  0  0  3  0  0  0  0  0  0
  -33.7320   22.5430  -14.1060 C   0  0  0  0  0  3  0  0  0  0  0  0
  -32.6310   21.6760  -14.2140 C   0  0  0  0  0  3  0  0  0  0  0  0
  3  7  1  0  0  0  0
  4  6  1  0  0  0  0
  5  4  1  0  0  0  0
  5  3  1  0  0  0  0
  6  1  2  0  0  0  0
  6  7  1  0  0  0  0
  7  2  2  0  0  0  0
  8  4  2  0  0  0  0
  9  5  2  0  0  0  0
 10  8  1  0  0  0  0
 11 10  2  0  0  0  0
 11  9  1  0  0  0  0
M  END
>  <MODEL>
3

>  <REMARK>
 VINA RESULT:    -6.635      7.291      8.888
 INTER + INTRA:          -6.635
 INTER:                  -6.635
 INTRA:                   0.000
 UNBOUND:                 0.000
  0 active torsions:
  status: ('A' for Active; 'I' for Inactive)

>  <TORSDO>
F 0

$$$$
./Isatina.pdbqt
 OpenBabel10282519553D

 11 12  0  0  0  0  0  0  0  0999 V2000
  -23.8900   26.2020   -9.7320 O   0  0  0  0  0  0  0  0  0  0  0  0
  -25.1820   23.8850  -11.0950 O   0  0  0  0  0  0  0  0  0  0  0  0
  -25.0760   22.9210   -8.9700 N   0  0  0  0  0  2  0  0  0  0  0  0
  -24.0420   24.7150   -7.8370 C   0  0  0  0  0  0  0  0  0  0  0  0
  -24.5920   23.3770   -7.7810 C   0  0  0  0  0  0  0  0  0  0  0  0
  -24.1940   25.1630   -9.2160 C   0  0  0  0  0  0  0  0  0  0  0  0
  -24.8910   23.9110   -9.9270 C   0  0  0  0  0  0  0  0  0  0  0  0
  -23.5050   25.3150   -6.7180 C   0  0  0  0  0  3  0  0  0  0  0  0
  -24.5780   22.6890   -6.5450 C   0  0  0  0  0  3  0  0  0  0  0  0
  -23.4990   24.6200   -5.5090 C   0  0  0  0  0  3  0  0  0  0  0  0
  -24.0340   23.3220   -5.4430 C   0  0  0  0  0  3  0  0  0  0  0  0
  1  6  2  0  0  0  0
  2  7  2  0  0  0  0
  3  5  1  0  0  0  0
  4  5  2  0  0  0  0
  4  8  1  0  0  0  0
  5  9  1  0  0  0  0
  6  4  1  0  0  0  0
  7  6  1  0  0  0  0
  7  3  1  0  0  0  0
  8 10  2  0  0  0  0
  9 11  2  0  0  0  0
 10 11  1  0  0  0  0
M  END
>  <MODEL>
4

>  <REMARK>
 VINA RESULT:    -6.615      1.716      2.393
 INTER + INTRA:          -6.615
 INTER:                  -6.615
 INTRA:                   0.000
 UNBOUND:                 0.000
  0 active torsions:
  status: ('A' for Active; 'I' for Inactive)

>  <TORSDO>
F 0

$$$$
./Isatina.pdbqt
 OpenBabel10282519553D

 11 12  0  0  0  0  0  0  0  0999 V2000
  -30.4800   21.5990  -13.0060 O   0  0  0  0  0  0  0  0  0  0  0  0
  -28.5710   23.3990  -11.5900 O   0  0  0  0  0  0  0  0  0  0  0  0
  -30.4570   24.7520  -11.3300 N   0  0  0  0  0  2  0  0  0  0  0  0
  -32.0140   23.3780  -12.4520 C   0  0  0  0  0  0  0  0  0  0  0  0
  -31.7510   24.6050  -11.7320 C   0  0  0  0  0  0  0  0  0  0  0  0
  -30.7470   22.6590  -12.5150 C   0  0  0  0  0  0  0  0  0  0  0  0
  -29.7400   23.6370  -11.7480 C   0  0  0  0  0  0  0  0  0  0  0  0
  -33.2730   23.0860  -12.9310 C   0  0  0  0  0  3  0  0  0  0  0  0
  -32.8180   25.5090  -11.5170 C   0  0  0  0  0  3  0  0  0  0  0  0
  -34.3130   23.9900  -12.7120 C   0  0  0  0  0  3  0  0  0  0  0  0
  -34.0680   25.1830  -12.0100 C   0  0  0  0  0  3  0  0  0  0  0  0
  1  6  2  0  0  0  0
  4  5  1  0  0  0  0
  5  9  2  0  0  0  0
  5  3  1  0  0  0  0
  6  4  1  0  0  0  0
  6  7  1  0  0  0  0
  7  2  2  0  0  0  0
  7  3  1  0  0  0  0
  8 10  1  0  0  0  0
  8  4  2  0  0  0  0
 10 11  2  0  0  0  0
 11  9  1  0  0  0  0
M  END
>  <MODEL>
5

>  <REMARK>
 VINA RESULT:    -6.573      6.951      8.388
 INTER + INTRA:          -6.573
 INTER:                  -6.573
 INTRA:                   0.000
 UNBOUND:                 0.000
  0 active torsions:
  status: ('A' for Active; 'I' for Inactive)

>  <TORSDO>
F 0

$$$$
./Isatina.pdbqt
 OpenBabel10282519553D

 11 12  0  0  0  0  0  0  0  0999 V2000
  -23.0780   24.9790   -5.2490 O   0  0  0  0  0  0  0  0  0  0  0  0
  -23.1680   22.3690   -3.8090 O   0  0  0  0  0  0  0  0  0  0  0  0
  -24.1380   21.6140   -5.7950 N   0  0  0  0  0  2  0  0  0  0  0  0
  -24.1070   23.6530   -6.9820 C   0  0  0  0  0  0  0  0  0  0  0  0
  -24.4470   22.2470   -6.9620 C   0  0  0  0  0  0  0  0  0  0  0  0
  -23.5130   23.9510   -5.6850 C   0  0  0  0  0  0  0  0  0  0  0  0
  -23.5670   22.5410   -4.9320 C   0  0  0  0  0  0  0  0  0  0  0  0
  -24.3640   24.4340   -8.0890 C   0  0  0  0  0  3  0  0  0  0  0  0
  -25.0460   21.6760   -8.1090 C   0  0  0  0  0  3  0  0  0  0  0  0
  -24.9570   23.8550   -9.2100 C   0  0  0  0  0  3  0  0  0  0  0  0
  -25.2870   22.4890   -9.2020 C   0  0  0  0  0  3  0  0  0  0  0  0
  3  7  1  0  0  0  0
  4  5  1  0  0  0  0
  4  6  1  0  0  0  0
  5  3  1  0  0  0  0
  6  1  2  0  0  0  0
  6  7  1  0  0  0  0
  7  2  2  0  0  0  0
  8  4  2  0  0  0  0
  9  5  2  0  0  0  0
 10 11  2  0  0  0  0
 10  8  1  0  0  0  0
 11  9  1  0  0  0  0
M  END
>  <MODEL>
6

>  <REMARK>
 VINA RESULT:    -6.409      3.099      3.999
 INTER + INTRA:          -6.409
 INTER:                  -6.409
 INTRA:                   0.000
 UNBOUND:                 0.000
  0 active torsions:
  status: ('A' for Active; 'I' for Inactive)

>  <TORSDO>
F 0

$$$$
./Isatina.pdbqt
 OpenBabel10282519553D

 11 12  0  0  0  0  0  0  0  0999 V2000
  -30.4230   23.3390  -10.4800 O   0  0  0  0  0  0  0  0  0  0  0  0
  -32.7790   25.1200  -10.0720 O   0  0  0  0  0  0  0  0  0  0  0  0
  -33.5730   24.0630  -11.9970 N   0  0  0  0  0  2  0  0  0  0  0  0
  -31.7320   22.6380  -12.3830 C   0  0  0  0  0  0  0  0  0  0  0  0
  -33.0380   23.1010  -12.8010 C   0  0  0  0  0  0  0  0  0  0  0  0
  -31.3970   23.3870  -11.1770 C   0  0  0  0  0  0  0  0  0  0  0  0
  -32.6720   24.3310  -10.9740 C   0  0  0  0  0  0  0  0  0  0  0  0
  -31.0550   21.6720  -13.0950 C   0  0  0  0  0  3  0  0  0  0  0  0
  -33.6200   22.5360  -13.9590 C   0  0  0  0  0  3  0  0  0  0  0  0
  -31.6440   21.1280  -14.2370 C   0  0  0  0  0  3  0  0  0  0  0  0
  -32.9130   21.5680  -14.6490 C   0  0  0  0  0  3  0  0  0  0  0  0
  3  7  1  0  0  0  0
  4  6  1  0  0  0  0
  5  4  1  0  0  0  0
  5  3  1  0  0  0  0
  6  7  1  0  0  0  0
  6  1  2  0  0  0  0
  7  2  2  0  0  0  0
  8  4  2  0  0  0  0
  9  5  2  0  0  0  0
 10  8  1  0  0  0  0
 11 10  2  0  0  0  0
 11  9  1  0  0  0  0
M  END
>  <MODEL>
7

>  <REMARK>
 VINA RESULT:    -6.372      7.524      9.203
 INTER + INTRA:          -6.372
 INTER:                  -6.372
 INTRA:                   0.000
 UNBOUND:                 0.000
  0 active torsions:
  status: ('A' for Active; 'I' for Inactive)

>  <TORSDO>
F 0

$$$$
./Isatina.pdbqt
 OpenBabel10282519553D

 11 12  0  0  0  0  0  0  0  0999 V2000
  -33.0180   21.3790  -14.2970 O   0  0  0  0  0  0  0  0  0  0  0  0
  -30.2340   20.7860  -13.4090 O   0  0  0  0  0  0  0  0  0  0  0  0
  -30.5040   22.7380  -12.1550 N   0  0  0  0  0  2  0  0  0  0  0  0
  -32.7020   23.2700  -12.8300 C   0  0  0  0  0  0  0  0  0  0  0  0
  -31.5420   23.6130  -12.0360 C   0  0  0  0  0  0  0  0  0  0  0  0
  -32.3680   22.0370  -13.5330 C   0  0  0  0  0  0  0  0  0  0  0  0
  -30.8770   21.7340  -13.0410 C   0  0  0  0  0  0  0  0  0  0  0  0
  -33.8320   24.0600  -12.8240 C   0  0  0  0  0  3  0  0  0  0  0  0
  -31.5870   24.7800  -11.2380 C   0  0  0  0  0  3  0  0  0  0  0  0
  -33.8560   25.2090  -12.0330 C   0  0  0  0  0  3  0  0  0  0  0  0
  -32.7360   25.5480  -11.2550 C   0  0  0  0  0  3  0  0  0  0  0  0
  1  6  2  0  0  0  0
  2  7  2  0  0  0  0
  3  5  1  0  0  0  0
  4  8  2  0  0  0  0
  4  5  1  0  0  0  0
  5  9  2  0  0  0  0
  6  7  1  0  0  0  0
  6  4  1  0  0  0  0
  7  3  1  0  0  0  0
  8 10  1  0  0  0  0
 10 11  2  0  0  0  0
 11  9  1  0  0  0  0
M  END
>  <MODEL>
8

>  <REMARK>
 VINA RESULT:    -6.310      7.398      8.531
 INTER + INTRA:          -6.310
 INTER:                  -6.310
 INTRA:                   0.000
 UNBOUND:                 0.000
  0 active torsions:
  status: ('A' for Active; 'I' for Inactive)

>  <TORSDO>
F 0

$$$$
./Isatina.pdbqt
 OpenBabel10282519553D

 11 12  0  0  0  0  0  0  0  0999 V2000
  -28.8970   23.6350  -11.6400 O   0  0  0  0  0  0  0  0  0  0  0  0
  -29.6980   21.2140  -13.1870 O   0  0  0  0  0  0  0  0  0  0  0  0
  -31.8080   22.2140  -13.1410 N   0  0  0  0  0  2  0  0  0  0  0  0
  -31.2400   24.1440  -11.9080 C   0  0  0  0  0  0  0  0  0  0  0  0
  -32.2590   23.3760  -12.5900 C   0  0  0  0  0  0  0  0  0  0  0  0
  -30.0000   23.3890  -12.0390 C   0  0  0  0  0  0  0  0  0  0  0  0
  -30.4490   22.1010  -12.8730 C   0  0  0  0  0  0  0  0  0  0  0  0
  -31.5400   25.3410  -11.2920 C   0  0  0  0  0  3  0  0  0  0  0  0
  -33.5810   23.8790  -12.6240 C   0  0  0  0  0  3  0  0  0  0  0  0
  -32.8490   25.8200  -11.3340 C   0  0  0  0  0  3  0  0  0  0  0  0
  -33.8450   25.0830  -11.9980 C   0  0  0  0  0  3  0  0  0  0  0  0
  2  7  2  0  0  0  0
  3  7  1  0  0  0  0
  3  5  1  0  0  0  0
  4  8  1  0  0  0  0
  5  4  2  0  0  0  0
  6  4  1  0  0  0  0
  6  1  2  0  0  0  0
  7  6  1  0  0  0  0
  9  5  1  0  0  0  0
  9 11  2  0  0  0  0
 10  8  2  0  0  0  0
 11 10  1  0  0  0  0
M  END
>  <MODEL>
9

>  <REMARK>
 VINA RESULT:    -6.288      6.805      8.045
 INTER + INTRA:          -6.288
 INTER:                  -6.288
 INTRA:                   0.000
 UNBOUND:                 0.000
  0 active torsions:
  status: ('A' for Active; 'I' for Inactive)

>  <TORSDO>
F 0

$$$$
./Isatina.pdbqt
 OpenBabel10282519553D

 11 12  0  0  0  0  0  0  0  0999 V2000
  -28.5700   23.3320   -5.2460 O   0  0  0  0  0  0  0  0  0  0  0  0
  -29.2880   22.6630   -8.0620 O   0  0  0  0  0  0  0  0  0  0  0  0
  -27.0270   23.0970   -8.4570 N   0  0  0  0  0  2  0  0  0  0  0  0
  -26.3990   23.6510   -6.2510 C   0  0  0  0  0  0  0  0  0  0  0  0
  -26.0110   23.4820   -7.6340 C   0  0  0  0  0  0  0  0  0  0  0  0
  -27.8210   23.3360   -6.1820 C   0  0  0  0  0  0  0  0  0  0  0  0
  -28.1840   22.9770   -7.6970 C   0  0  0  0  0  0  0  0  0  0  0  0
  -25.4870   24.0450   -5.2950 C   0  0  0  0  0  3  0  0  0  0  0  0
  -24.6650   23.7230   -7.9960 C   0  0  0  0  0  3  0  0  0  0  0  0
  -24.1640   24.2800   -5.6710 C   0  0  0  0  0  3  0  0  0  0  0  0
  -23.7770   24.1150   -7.0120 C   0  0  0  0  0  3  0  0  0  0  0  0
  2  7  2  0  0  0  0
  3  7  1  0  0  0  0
  3  5  1  0  0  0  0
  4  6  1  0  0  0  0
  4  8  1  0  0  0  0
  5  4  2  0  0  0  0
  6  1  2  0  0  0  0
  7  6  1  0  0  0  0
  9  5  1  0  0  0  0
  9 11  2  0  0  0  0
 10  8  2  0  0  0  0
 11 10  1  0  0  0  0
M  END
>  <MODEL>
10

>  <REMARK>
 VINA RESULT:    -6.207      2.902      3.316
 INTER + INTRA:          -6.207
 INTER:                  -6.207
 INTRA:                   0.000
 UNBOUND:                 0.000
  0 active torsions:
  status: ('A' for Active; 'I' for Inactive)

>  <TORSDO>
F 0

$$$$
./Isatina.pdbqt
 OpenBabel10282519553D

 11 12  0  0  0  0  0  0  0  0999 V2000
  -33.9690   24.6030  -12.2150 O   0  0  0  0  0  0  0  0  0  0  0  0
  -31.5570   24.6840  -10.4630 O   0  0  0  0  0  0  0  0  0  0  0  0
  -30.8760   22.8750  -11.7740 N   0  0  0  0  0  2  0  0  0  0  0  0
  -32.7650   22.7500  -13.1840 C   0  0  0  0  0  0  0  0  0  0  0  0
  -31.4690   22.2220  -12.8140 C   0  0  0  0  0  0  0  0  0  0  0  0
  -33.0270   23.8650  -12.2810 C   0  0  0  0  0  0  0  0  0  0  0  0
  -31.7230   23.8930  -11.3560 C   0  0  0  0  0  0  0  0  0  0  0  0
  -33.4960   22.1940  -14.2120 C   0  0  0  0  0  3  0  0  0  0  0  0
  -30.9530   21.1200  -13.5350 C   0  0  0  0  0  3  0  0  0  0  0  0
  -32.9720   21.1060  -14.9100 C   0  0  0  0  0  3  0  0  0  0  0  0
  -31.7120   20.5890  -14.5610 C   0  0  0  0  0  3  0  0  0  0  0  0
  3  7  1  0  0  0  0
  4  5  1  0  0  0  0
  4  6  1  0  0  0  0
  5  3  1  0  0  0  0
  6  1  2  0  0  0  0
  6  7  1  0  0  0  0
  7  2  2  0  0  0  0
  8  4  2  0  0  0  0
  9  5  2  0  0  0  0
 10 11  2  0  0  0  0
 10  8  1  0  0  0  0
 11  9  1  0  0  0  0
M  END
>  <MODEL>
11

>  <REMARK>
 VINA RESULT:    -6.204      7.644      9.272
 INTER + INTRA:          -6.204
 INTER:                  -6.204
 INTRA:                   0.000
 UNBOUND:                 0.000
  0 active torsions:
  status: ('A' for Active; 'I' for Inactive)

>  <TORSDO>
F 0

$$$$
./Isatina.pdbqt
 OpenBabel10282519553D

 11 12  0  0  0  0  0  0  0  0999 V2000
  -30.3800   21.3530  -13.1350 O   0  0  0  0  0  0  0  0  0  0  0  0
  -32.9040   20.8440  -14.6390 O   0  0  0  0  0  0  0  0  0  0  0  0
  -33.6010   22.8190  -13.6050 N   0  0  0  0  0  2  0  0  0  0  0  0
  -31.6360   23.2690  -12.3780 C   0  0  0  0  0  0  0  0  0  0  0  0
  -32.9830   23.6630  -12.7310 C   0  0  0  0  0  0  0  0  0  0  0  0
  -31.3630   22.0370  -13.1090 C   0  0  0  0  0  0  0  0  0  0  0  0
  -32.7240   21.7850  -13.9100 C   0  0  0  0  0  0  0  0  0  0  0  0
  -30.8810   24.0150  -11.4990 C   0  0  0  0  0  3  0  0  0  0  0  0
  -33.5170   24.8420  -12.1620 C   0  0  0  0  0  3  0  0  0  0  0  0
  -31.4250   25.1740  -10.9450 C   0  0  0  0  0  3  0  0  0  0  0  0
  -32.7310   25.5670  -11.2860 C   0  0  0  0  0  3  0  0  0  0  0  0
  1  6  2  0  0  0  0
  2  7  2  0  0  0  0
  3  5  1  0  0  0  0
  4  8  1  0  0  0  0
  5  4  2  0  0  0  0
  5  9  1  0  0  0  0
  6  4  1  0  0  0  0
  7  3  1  0  0  0  0
  7  6  1  0  0  0  0
  8 10  2  0  0  0  0
  9 11  2  0  0  0  0
 11 10  1  0  0  0  0
M  END
>  <MODEL>
12

>  <REMARK>
 VINA RESULT:    -6.126      7.533      8.619
 INTER + INTRA:          -6.126
 INTER:                  -6.126
 INTRA:                   0.000
 UNBOUND:                 0.000
  0 active torsions:
  status: ('A' for Active; 'I' for Inactive)

>  <TORSDO>
F 0

$$$$
./Isatina.pdbqt
 OpenBabel10282519553D

 11 12  0  0  0  0  0  0  0  0999 V2000
  -26.3820   20.4200   -9.3900 O   0  0  0  0  0  0  0  0  0  0  0  0
  -26.0570   22.5640   -7.3430 O   0  0  0  0  0  0  0  0  0  0  0  0
  -25.2540   23.7990   -9.1550 N   0  0  0  0  0  2  0  0  0  0  0  0
  -25.4740   22.1400  -10.8190 C   0  0  0  0  0  0  0  0  0  0  0  0
  -25.0820   23.4890  -10.4710 C   0  0  0  0  0  0  0  0  0  0  0  0
  -25.9520   21.5210   -9.5880 C   0  0  0  0  0  0  0  0  0  0  0  0
  -25.7740   22.6860   -8.5060 C   0  0  0  0  0  0  0  0  0  0  0  0
  -25.3540   21.6710  -12.1090 C   0  0  0  0  0  3  0  0  0  0  0  0
  -24.5740   24.3320  -11.4870 C   0  0  0  0  0  3  0  0  0  0  0  0
  -24.8490   22.5160  -13.0980 C   0  0  0  0  0  3  0  0  0  0  0  0
  -24.4690   23.8290  -12.7700 C   0  0  0  0  0  3  0  0  0  0  0  0
  3  7  1  0  0  0  0
  4  5  1  0  0  0  0
  4  6  1  0  0  0  0
  5  3  1  0  0  0  0
  6  1  2  0  0  0  0
  6  7  1  0  0  0  0
  7  2  2  0  0  0  0
  8  4  2  0  0  0  0
  9  5  2  0  0  0  0
 10 11  2  0  0  0  0
 10  8  1  0  0  0  0
 11  9  1  0  0  0  0
M  END
>  <MODEL>
13

>  <REMARK>
 VINA RESULT:    -6.102      2.301      4.058
 INTER + INTRA:          -6.102
 INTER:                  -6.102
 INTRA:                   0.000
 UNBOUND:                 0.000
  0 active torsions:
  status: ('A' for Active; 'I' for Inactive)

>  <TORSDO>
F 0

$$$$
./Isatina.pdbqt
 OpenBabel10282519553D

 11 12  0  0  0  0  0  0  0  0999 V2000
  -33.8660   21.9170  -14.2050 O   0  0  0  0  0  0  0  0  0  0  0  0
  -36.0450   23.9430  -14.0040 O   0  0  0  0  0  0  0  0  0  0  0  0
  -34.5270   25.0420  -12.6100 N   0  0  0  0  0  2  0  0  0  0  0  0
  -32.7710   23.4700  -12.7180 C   0  0  0  0  0  0  0  0  0  0  0  0
  -33.2690   24.7240  -12.1950 C   0  0  0  0  0  0  0  0  0  0  0  0
  -33.8290   22.9290  -13.5630 C   0  0  0  0  0  0  0  0  0  0  0  0
  -34.9830   24.0290  -13.4450 C   0  0  0  0  0  0  0  0  0  0  0  0
  -31.5170   23.0040  -12.3850 C   0  0  0  0  0  3  0  0  0  0  0  0
  -32.4390   25.4780  -11.3330 C   0  0  0  0  0  3  0  0  0  0  0  0
  -30.7130   23.7600  -11.5310 C   0  0  0  0  0  3  0  0  0  0  0  0
  -31.1860   24.9820  -11.0220 C   0  0  0  0  0  3  0  0  0  0  0  0
  1  6  2  0  0  0  0
  2  7  2  0  0  0  0
  3  5  1  0  0  0  0
  4  8  2  0  0  0  0
  4  5  1  0  0  0  0
  5  9  2  0  0  0  0
  6  7  1  0  0  0  0
  6  4  1  0  0  0  0
  7  3  1  0  0  0  0
  8 10  1  0  0  0  0
  9 11  1  0  0  0  0
 10 11  2  0  0  0  0
M  END
>  <MODEL>
14

>  <REMARK>
 VINA RESULT:    -6.093      8.453      9.518
 INTER + INTRA:          -6.093
 INTER:                  -6.093
 INTRA:                   0.000
 UNBOUND:                 0.000
  0 active torsions:
  status: ('A' for Active; 'I' for Inactive)

>  <TORSDO>
F 0

$$$$
./Isatina.pdbqt
 OpenBabel10282519553D

 11 12  0  0  0  0  0  0  0  0999 V2000
  -29.5250   22.9900   -7.9400 O   0  0  0  0  0  0  0  0  0  0  0  0
  -29.3320   24.5740   -5.4210 O   0  0  0  0  0  0  0  0  0  0  0  0
  -27.0940   23.9090   -5.4920 N   0  0  0  0  0  2  0  0  0  0  0  0
  -27.1850   22.6290   -7.4730 C   0  0  0  0  0  0  0  0  0  0  0  0
  -26.3970   23.1340   -6.3700 C   0  0  0  0  0  0  0  0  0  0  0  0
  -28.5370   23.1410   -7.2790 C   0  0  0  0  0  0  0  0  0  0  0  0
  -28.4110   23.9880   -5.9280 C   0  0  0  0  0  0  0  0  0  0  0  0
  -26.6260   21.8240   -8.4420 C   0  0  0  0  0  3  0  0  0  0  0  0
  -25.0260   22.7920   -6.3020 C   0  0  0  0  0  3  0  0  0  0  0  0
  -25.2730   21.4950   -8.3580 C   0  0  0  0  0  3  0  0  0  0  0  0
  -24.4980   21.9840   -7.2920 C   0  0  0  0  0  3  0  0  0  0  0  0
  1  6  2  0  0  0  0
  4  6  1  0  0  0  0
  4  5  1  0  0  0  0
  5  9  2  0  0  0  0
  5  3  1  0  0  0  0
  6  7  1  0  0  0  0
  7  3  1  0  0  0  0
  7  2  2  0  0  0  0
  8 10  1  0  0  0  0
  8  4  2  0  0  0  0
 10 11  2  0  0  0  0
 11  9  1  0  0  0  0
M  END
>  <MODEL>
15

>  <REMARK>
 VINA RESULT:    -6.062      3.370      3.952
 INTER + INTRA:          -6.062
 INTER:                  -6.062
 INTRA:                   0.000
 UNBOUND:                 0.000
  0 active torsions:
  status: ('A' for Active; 'I' for Inactive)

>  <TORSDO>
F 0

$$$$
./Isatina.pdbqt
 OpenBabel10282519553D

 11 12  0  0  0  0  0  0  0  0999 V2000
  -17.9400    1.0240   12.2790 O   0  0  0  0  0  0  0  0  0  0  0  0
  -18.6410   -0.4020    9.7560 O   0  0  0  0  0  0  0  0  0  0  0  0
  -20.6710    0.7260   10.0000 N   0  0  0  0  0  2  0  0  0  0  0  0
  -20.1820    1.8720   12.0040 C   0  0  0  0  0  0  0  0  0  0  0  0
  -21.1310    1.5910   10.9480 C   0  0  0  0  0  0  0  0  0  0  0  0
  -18.9830    1.1020   11.6940 C   0  0  0  0  0  0  0  0  0  0  0  0
  -19.3780    0.3500   10.3390 C   0  0  0  0  0  0  0  0  0  0  0  0
  -20.4990    2.7220   13.0420 C   0  0  0  0  0  3  0  0  0  0  0  0
  -22.4000    2.2140   10.9910 C   0  0  0  0  0  3  0  0  0  0  0  0
  -21.7570    3.3260   13.0690 C   0  0  0  0  0  3  0  0  0  0  0  0
  -22.6830    3.0620   12.0460 C   0  0  0  0  0  3  0  0  0  0  0  0
  2  7  2  0  0  0  0
  3  7  1  0  0  0  0
  3  5  1  0  0  0  0
  4  8  1  0  0  0  0
  5  9  1  0  0  0  0
  5  4  2  0  0  0  0
  6  4  1  0  0  0  0
  6  1  2  0  0  0  0
  7  6  1  0  0  0  0
  8 10  2  0  0  0  0
  9 11  2  0  0  0  0
 11 10  1  0  0  0  0
M  END
>  <MODEL>
16

>  <REMARK>
 VINA RESULT:    -5.988     29.012     29.717
 INTER + INTRA:          -5.988
 INTER:                  -5.988
 INTRA:                   0.000
 UNBOUND:                 0.000
  0 active torsions:
  status: ('A' for Active; 'I' for Inactive)

>  <TORSDO>
F 0

$$$$
./Isatina.pdbqt
 OpenBabel10282519553D

 11 12  0  0  0  0  0  0  0  0999 V2000
  -35.5750   23.3610  -14.0550 O   0  0  0  0  0  0  0  0  0  0  0  0
  -33.8670   21.0870  -14.9520 O   0  0  0  0  0  0  0  0  0  0  0  0
  -32.2940   22.0570  -13.5250 N   0  0  0  0  0  2  0  0  0  0  0  0
  -33.5900   23.8860  -12.7860 C   0  0  0  0  0  0  0  0  0  0  0  0
  -32.3340   23.1690  -12.7370 C   0  0  0  0  0  0  0  0  0  0  0  0
  -34.4480   23.1480  -13.7070 C   0  0  0  0  0  0  0  0  0  0  0  0
  -33.5170   21.9340  -14.1720 C   0  0  0  0  0  0  0  0  0  0  0  0
  -33.7860   25.0350  -12.0520 C   0  0  0  0  0  3  0  0  0  0  0  0
  -31.3010   23.6650  -11.9090 C   0  0  0  0  0  3  0  0  0  0  0  0
  -32.7550   25.5120  -11.2420 C   0  0  0  0  0  3  0  0  0  0  0  0
  -31.5330   24.8200  -11.1840 C   0  0  0  0  0  3  0  0  0  0  0  0
  1  6  2  0  0  0  0
  2  7  2  0  0  0  0
  3  5  1  0  0  0  0
  4  5  2  0  0  0  0
  4  8  1  0  0  0  0
  5  9  1  0  0  0  0
  6  4  1  0  0  0  0
  7  6  1  0  0  0  0
  7  3  1  0  0  0  0
  8 10  2  0  0  0  0
  9 11  2  0  0  0  0
 10 11  1  0  0  0  0
M  END
>  <MODEL>
17

>  <REMARK>
 VINA RESULT:    -5.918      8.458      9.435
 INTER + INTRA:          -5.918
 INTER:                  -5.918
 INTRA:                   0.000
 UNBOUND:                 0.000
  0 active torsions:
  status: ('A' for Active; 'I' for Inactive)

>  <TORSDO>
F 0

$$$$
./Isatina.pdbqt
 OpenBabel10282519553D

 11 12  0  0  0  0  0  0  0  0999 V2000
  -37.6830   32.3860    5.9700 O   0  0  0  0  0  0  0  0  0  0  0  0
  -39.3770   30.0550    6.7360 O   0  0  0  0  0  0  0  0  0  0  0  0
  -40.3330   30.4020    4.6340 N   0  0  0  0  0  2  0  0  0  0  0  0
  -39.0350   32.2590    3.9750 C   0  0  0  0  0  0  0  0  0  0  0  0
  -40.0900   31.3210    3.6570 C   0  0  0  0  0  0  0  0  0  0  0  0
  -38.5500   31.8970    5.3020 C   0  0  0  0  0  0  0  0  0  0  0  0
  -39.4660   30.6460    5.6920 C   0  0  0  0  0  0  0  0  0  0  0  0
  -38.6740   33.2550    3.0930 C   0  0  0  0  0  3  0  0  0  0  0  0
  -40.7480   31.4360    2.4110 C   0  0  0  0  0  3  0  0  0  0  0  0
  -39.3370   33.3540    1.8690 C   0  0  0  0  0  3  0  0  0  0  0  0
  -40.3600   32.4450    1.5500 C   0  0  0  0  0  3  0  0  0  0  0  0
  3  7  1  0  0  0  0
  4  6  1  0  0  0  0
  5  4  1  0  0  0  0
  5  3  1  0  0  0  0
  6  7  1  0  0  0  0
  6  1  2  0  0  0  0
  7  2  2  0  0  0  0
  8  4  2  0  0  0  0
  9  5  2  0  0  0  0
 10  8  1  0  0  0  0
 11 10  2  0  0  0  0
 11  9  1  0  0  0  0
M  END
>  <MODEL>
18

>  <REMARK>
 VINA RESULT:    -5.803     20.891     21.280
 INTER + INTRA:          -5.803
 INTER:                  -5.803
 INTRA:                   0.000
 UNBOUND:                 0.000
  0 active torsions:
  status: ('A' for Active; 'I' for Inactive)

>  <TORSDO>
F 0

$$$$
./Isatina.pdbqt
 OpenBabel10282519553D

 11 12  0  0  0  0  0  0  0  0999 V2000
  -39.3630   33.8090    1.1310 O   0  0  0  0  0  0  0  0  0  0  0  0
  -38.4580   32.6850    3.7410 O   0  0  0  0  0  0  0  0  0  0  0  0
  -40.7500   32.5200    4.1580 N   0  0  0  0  0  2  0  0  0  0  0  0
  -41.5300   33.4150    2.1180 C   0  0  0  0  0  0  0  0  0  0  0  0
  -41.8430   32.8550    3.4150 C   0  0  0  0  0  0  0  0  0  0  0  0
  -40.0750   33.4370    2.0210 C   0  0  0  0  0  0  0  0  0  0  0  0
  -39.6110   32.8290    3.4250 C   0  0  0  0  0  0  0  0  0  0  0  0
  -42.5260   33.8110    1.2510 C   0  0  0  0  0  3  0  0  0  0  0  0
  -43.2010   32.7120    3.7830 C   0  0  0  0  0  3  0  0  0  0  0  0
  -43.8600   33.6640    1.6320 C   0  0  0  0  0  3  0  0  0  0  0  0
  -44.1740   33.1180    2.8890 C   0  0  0  0  0  3  0  0  0  0  0  0
  1  6  2  0  0  0  0
  4  5  1  0  0  0  0
  5  9  2  0  0  0  0
  5  3  1  0  0  0  0
  6  4  1  0  0  0  0
  6  7  1  0  0  0  0
  7  2  2  0  0  0  0
  7  3  1  0  0  0  0
  8 10  1  0  0  0  0
  8  4  2  0  0  0  0
 10 11  2  0  0  0  0
 11  9  1  0  0  0  0
M  END
>  <MODEL>
19

>  <REMARK>
 VINA RESULT:    -5.712     22.148     22.509
 INTER + INTRA:          -5.712
 INTER:                  -5.712
 INTRA:                   0.000
 UNBOUND:                 0.000
  0 active torsions:
  status: ('A' for Active; 'I' for Inactive)

>  <TORSDO>
F 0

$$$$
./Isatina.pdbqt
 OpenBabel10282519553D

 11 12  0  0  0  0  0  0  0  0999 V2000
  -40.4440   32.8260    5.0670 O   0  0  0  0  0  0  0  0  0  0  0  0
  -38.3310   33.3220    3.0220 O   0  0  0  0  0  0  0  0  0  0  0  0
  -40.1550   33.5360    1.5800 N   0  0  0  0  0  2  0  0  0  0  0  0
  -41.8730   33.1370    3.1480 C   0  0  0  0  0  0  0  0  0  0  0  0
  -41.4990   33.4310    1.7810 C   0  0  0  0  0  0  0  0  0  0  0  0
  -40.6300   33.0460    3.9030 C   0  0  0  0  0  0  0  0  0  0  0  0
  -39.5120   33.3190    2.7920 C   0  0  0  0  0  0  0  0  0  0  0  0
  -43.1950   32.9930    3.5110 C   0  0  0  0  0  3  0  0  0  0  0  0
  -42.5210   33.5780    0.8140 C   0  0  0  0  0  3  0  0  0  0  0  0
  -44.1890   33.1390    2.5430 C   0  0  0  0  0  3  0  0  0  0  0  0
  -43.8360   33.4280    1.2140 C   0  0  0  0  0  3  0  0  0  0  0  0
  3  5  1  0  0  0  0
  3  7  1  0  0  0  0
  4  8  1  0  0  0  0
  4  6  1  0  0  0  0
  5  4  2  0  0  0  0
  6  1  2  0  0  0  0
  7  2  2  0  0  0  0
  7  6  1  0  0  0  0
  9 11  2  0  0  0  0
  9  5  1  0  0  0  0
 10  8  2  0  0  0  0
 11 10  1  0  0  0  0
M  END
>  <MODEL>
20

>  <REMARK>
 VINA RESULT:    -5.634     22.279     22.704
 INTER + INTRA:          -5.634
 INTER:                  -5.634
 INTRA:                   0.000
 UNBOUND:                 0.000
  0 active torsions:
  status: ('A' for Active; 'I' for Inactive)

>  <TORSDO>
F 0

$$$$
