./Protoberberina.pdbqt
 OpenBabel10282519553D

 18 21  0  0  1  0  0  0  0  0999 V2000
  -34.6990   22.9020  -13.7290 N   0  0  0  0  0  0  0  0  0  0  0  0
  -35.3440   23.9970  -12.9620 C   0  0  0  0  0  2  0  0  0  0  0  0
  -34.3600   25.1570  -12.7740 C   0  0  0  0  0  2  0  0  0  0  0  0
  -33.3630   22.5910  -13.4650 C   0  0  2  0  0  3  0  0  0  0  0  0
  -33.1230   24.6500  -12.1050 C   0  0  0  0  0  0  0  0  0  0  0  0
  -32.6710   23.3600  -12.4300 C   0  0  0  0  0  0  0  0  0  0  0  0
  -35.4030   22.2400  -14.6630 C   0  0  0  0  0  3  0  0  0  0  0  0
  -32.7530   21.5970  -14.2030 C   0  0  0  0  0  3  0  0  0  0  0  0
  -34.8190   21.2020  -15.4200 C   0  0  0  0  0  0  0  0  0  0  0  0
  -33.4580   20.8730  -15.1920 C   0  0  0  0  0  0  0  0  0  0  0  0
  -32.4350   25.4210  -11.1740 C   0  0  0  0  0  3  0  0  0  0  0  0
  -31.5540   22.8350  -11.7720 C   0  0  0  0  0  3  0  0  0  0  0  0
  -35.5620   20.4900  -16.4050 C   0  0  0  0  0  3  0  0  0  0  0  0
  -32.8560   19.8380  -15.9550 C   0  0  0  0  0  3  0  0  0  0  0  0
  -31.3080   24.8990  -10.5400 C   0  0  0  0  0  3  0  0  0  0  0  0
  -30.8760   23.6050  -10.8300 C   0  0  0  0  0  3  0  0  0  0  0  0
  -34.9560   19.4950  -17.1260 C   0  0  0  0  0  3  0  0  0  0  0  0
  -33.5910   19.1680  -16.8990 C   0  0  0  0  0  3  0  0  0  0  0  0
  1  4  1  0  0  0  0
  1  2  1  0  0  0  0
  2  3  1  0  0  0  0
  3  5  1  0  0  0  0
  4  8  1  6  0  0  0
  4  6  1  0  0  0  0
  5 11  1  0  0  0  0
  6  5  2  0  0  0  0
  6 12  1  0  0  0  0
  7  1  1  0  0  0  0
  9 10  1  0  0  0  0
  9  7  2  0  0  0  0
 10  8  2  0  0  0  0
 11 15  2  0  0  0  0
 12 16  2  0  0  0  0
 13  9  1  0  0  0  0
 14 10  1  0  0  0  0
 16 15  1  0  0  0  0
 17 18  1  0  0  0  0
 17 13  2  0  0  0  0
 18 14  2  0  0  0  0
M  END
>  <MODEL>
1

>  <REMARK>
 VINA RESULT:    -9.974      0.000      0.000
 INTER + INTRA:          -9.974
 INTER:                  -9.974
 INTRA:                   0.000
 UNBOUND:                 0.000
  0 active torsions:
  status: ('A' for Active; 'I' for Inactive)

>  <TORSDO>
F 0

$$$$
./Protoberberina.pdbqt
 OpenBabel10282519553D

 18 21  0  0  1  0  0  0  0  0999 V2000
  -34.5940   23.2440  -14.2160 N   0  0  0  0  0  0  0  0  0  0  0  0
  -35.7900   23.2840  -15.0950 C   0  0  0  0  0  2  0  0  0  0  0  0
  -36.3730   21.8750  -15.2520 C   0  0  0  0  0  2  0  0  0  0  0  0
  -33.7020   22.1760  -14.3410 C   0  0  2  0  0  3  0  0  0  0  0  0
  -35.3150   20.9610  -15.7780 C   0  0  0  0  0  0  0  0  0  0  0  0
  -33.9920   21.1540  -15.3470 C   0  0  0  0  0  0  0  0  0  0  0  0
  -34.3970   24.2230  -13.3170 C   0  0  0  0  0  3  0  0  0  0  0  0
  -32.6090   22.1200  -13.4990 C   0  0  0  0  0  3  0  0  0  0  0  0
  -33.2770   24.2120  -12.4570 C   0  0  0  0  0  0  0  0  0  0  0  0
  -32.3610   23.1320  -12.5430 C   0  0  0  0  0  0  0  0  0  0  0  0
  -35.6170   19.9470  -16.6820 C   0  0  0  0  0  3  0  0  0  0  0  0
  -32.9720   20.3550  -15.8720 C   0  0  0  0  0  3  0  0  0  0  0  0
  -33.0570   25.2510  -11.5080 C   0  0  0  0  0  3  0  0  0  0  0  0
  -31.2380   23.1030  -11.6760 C   0  0  0  0  0  3  0  0  0  0  0  0
  -34.5970   19.1380  -17.1820 C   0  0  0  0  0  3  0  0  0  0  0  0
  -33.2760   19.3500  -16.7870 C   0  0  0  0  0  3  0  0  0  0  0  0
  -31.9630   25.1980  -10.6840 C   0  0  0  0  0  3  0  0  0  0  0  0
  -31.0470   24.1140  -10.7690 C   0  0  0  0  0  3  0  0  0  0  0  0
  1  7  1  0  0  0  0
  2  1  1  0  0  0  0
  3  2  1  0  0  0  0
  4  1  1  0  0  0  0
  4  8  1  1  0  0  0
  5  6  1  0  0  0  0
  5  3  1  0  0  0  0
  6  4  1  0  0  0  0
  7  9  2  0  0  0  0
  8 10  2  0  0  0  0
  9 13  1  0  0  0  0
 10  9  1  0  0  0  0
 10 14  1  0  0  0  0
 11  5  2  0  0  0  0
 12  6  2  0  0  0  0
 13 17  2  0  0  0  0
 14 18  2  0  0  0  0
 15 16  2  0  0  0  0
 15 11  1  0  0  0  0
 16 12  1  0  0  0  0
 18 17  1  0  0  0  0
M  END
>  <MODEL>
2

>  <REMARK>
 VINA RESULT:    -9.323      0.747      5.748
 INTER + INTRA:          -9.323
 INTER:                  -9.323
 INTRA:                   0.000
 UNBOUND:                 0.000
  0 active torsions:
  status: ('A' for Active; 'I' for Inactive)

>  <TORSDO>
F 0

$$$$
./Protoberberina.pdbqt
 OpenBabel10282519553D

 18 21  0  0  1  0  0  0  0  0999 V2000
  -32.3520   21.5530  -13.9850 N   0  0  0  0  0  0  0  0  0  0  0  0
  -31.9100   20.3150  -14.6750 C   0  0  0  0  0  2  0  0  0  0  0  0
  -32.3970   20.3220  -16.1280 C   0  0  0  0  0  2  0  0  0  0  0  0
  -33.6330   22.0470  -14.2440 C   0  0  2  0  0  3  0  0  0  0  0  0
  -33.8830   20.4800  -16.1480 C   0  0  0  0  0  0  0  0  0  0  0  0
  -34.4790   21.3060  -15.1790 C   0  0  0  0  0  0  0  0  0  0  0  0
  -31.5170   22.1770  -13.1370 C   0  0  0  0  0  3  0  0  0  0  0  0
  -34.0310   23.2180  -13.6300 C   0  0  0  0  0  3  0  0  0  0  0  0
  -31.8990   23.3620  -12.4720 C   0  0  0  0  0  0  0  0  0  0  0  0
  -33.1860   23.9030  -12.7270 C   0  0  0  0  0  0  0  0  0  0  0  0
  -34.6700   19.8230  -17.0880 C   0  0  0  0  0  3  0  0  0  0  0  0
  -35.8720   21.4200  -15.1330 C   0  0  0  0  0  3  0  0  0  0  0  0
  -31.0220   24.0230  -11.5650 C   0  0  0  0  0  3  0  0  0  0  0  0
  -33.5780   25.1010  -12.0730 C   0  0  0  0  0  3  0  0  0  0  0  0
  -36.0570   19.9620  -17.0510 C   0  0  0  0  0  3  0  0  0  0  0  0
  -36.6560   20.7500  -16.0680 C   0  0  0  0  0  3  0  0  0  0  0  0
  -31.4270   25.1770  -10.9470 C   0  0  0  0  0  3  0  0  0  0  0  0
  -32.7150   25.7200  -11.2050 C   0  0  0  0  0  3  0  0  0  0  0  0
  1  7  1  0  0  0  0
  2  1  1  0  0  0  0
  3  2  1  0  0  0  0
  4  1  1  0  0  0  0
  4  8  1  6  0  0  0
  5  3  1  0  0  0  0
  5  6  1  0  0  0  0
  6 12  2  0  0  0  0
  6  4  1  0  0  0  0
  7  9  2  0  0  0  0
  8 10  2  0  0  0  0
  9 13  1  0  0  0  0
 10  9  1  0  0  0  0
 10 14  1  0  0  0  0
 11 15  1  0  0  0  0
 11  5  2  0  0  0  0
 13 17  2  0  0  0  0
 14 18  2  0  0  0  0
 15 16  2  0  0  0  0
 16 12  1  0  0  0  0
 18 17  1  0  0  0  0
M  END
>  <MODEL>
3

>  <REMARK>
 VINA RESULT:    -9.226      1.117      6.254
 INTER + INTRA:          -9.226
 INTER:                  -9.226
 INTRA:                   0.000
 UNBOUND:                 0.000
  0 active torsions:
  status: ('A' for Active; 'I' for Inactive)

>  <TORSDO>
F 0

$$$$
./Protoberberina.pdbqt
 OpenBabel10282519553D

 18 21  0  0  1  0  0  0  0  0999 V2000
  -32.2180   21.2940  -14.5290 N   0  0  0  0  0  0  0  0  0  0  0  0
  -30.9250   21.5850  -13.8600 C   0  0  0  0  0  2  0  0  0  0  0  0
  -31.1600   21.8890  -12.3760 C   0  0  0  0  0  2  0  0  0  0  0  0
  -33.3410   22.0510  -14.1850 C   0  0  2  0  0  3  0  0  0  0  0  0
  -32.1290   23.0200  -12.2520 C   0  0  0  0  0  0  0  0  0  0  0  0
  -33.1770   23.1050  -13.1840 C   0  0  0  0  0  0  0  0  0  0  0  0
  -32.2880   20.3090  -15.4410 C   0  0  0  0  0  3  0  0  0  0  0  0
  -34.5500   21.7560  -14.7810 C   0  0  0  0  0  3  0  0  0  0  0  0
  -33.5020   19.9950  -16.0890 C   0  0  0  0  0  0  0  0  0  0  0  0
  -34.6660   20.7310  -15.7490 C   0  0  0  0  0  0  0  0  0  0  0  0
  -32.0010   23.9780  -11.2510 C   0  0  0  0  0  3  0  0  0  0  0  0
  -34.0600   24.1890  -13.1320 C   0  0  0  0  0  3  0  0  0  0  0  0
  -33.5800   18.9600  -17.0630 C   0  0  0  0  0  3  0  0  0  0  0  0
  -35.8960   20.4180  -16.3850 C   0  0  0  0  0  3  0  0  0  0  0  0
  -32.9010   25.0420  -11.1910 C   0  0  0  0  0  3  0  0  0  0  0  0
  -33.9200   25.1530  -12.1370 C   0  0  0  0  0  3  0  0  0  0  0  0
  -34.7800   18.6790  -17.6620 C   0  0  0  0  0  3  0  0  0  0  0  0
  -35.9470   19.4150  -17.3190 C   0  0  0  0  0  3  0  0  0  0  0  0
  1  4  1  0  0  0  0
  1  2  1  0  0  0  0
  2  3  1  0  0  0  0
  3  5  1  0  0  0  0
  4  8  1  1  0  0  0
  4  6  1  0  0  0  0
  5 11  1  0  0  0  0
  6 12  1  0  0  0  0
  6  5  2  0  0  0  0
  7  1  1  0  0  0  0
  9 10  1  0  0  0  0
  9  7  2  0  0  0  0
 10  8  2  0  0  0  0
 11 15  2  0  0  0  0
 12 16  2  0  0  0  0
 13  9  1  0  0  0  0
 14 10  1  0  0  0  0
 16 15  1  0  0  0  0
 17 18  1  0  0  0  0
 17 13  2  0  0  0  0
 18 14  2  0  0  0  0
M  END
>  <MODEL>
4

>  <REMARK>
 VINA RESULT:    -9.194      1.153      2.757
 INTER + INTRA:          -9.194
 INTER:                  -9.194
 INTRA:                   0.000
 UNBOUND:                 0.000
  0 active torsions:
  status: ('A' for Active; 'I' for Inactive)

>  <TORSDO>
F 0

$$$$
./Protoberberina.pdbqt
 OpenBabel10282519553D

 18 21  0  0  1  0  0  0  0  0999 V2000
  -33.4530   22.0910  -14.3390 N   0  0  0  0  0  0  0  0  0  0  0  0
  -32.0130   21.7580  -14.4830 C   0  0  0  0  0  2  0  0  0  0  0  0
  -31.3380   21.7400  -13.1060 C   0  0  0  0  0  2  0  0  0  0  0  0
  -33.8290   23.0670  -13.4120 C   0  0  2  0  0  3  0  0  0  0  0  0
  -31.5500   23.0590  -12.4370 C   0  0  0  0  0  0  0  0  0  0  0  0
  -32.7740   23.7190  -12.6360 C   0  0  0  0  0  0  0  0  0  0  0  0
  -34.3620   21.4480  -15.0900 C   0  0  0  0  0  3  0  0  0  0  0  0
  -35.1700   23.3500  -13.2530 C   0  0  0  0  0  3  0  0  0  0  0  0
  -35.7410   21.7300  -14.9720 C   0  0  0  0  0  0  0  0  0  0  0  0
  -36.1600   22.7010  -14.0260 C   0  0  0  0  0  0  0  0  0  0  0  0
  -30.5630   23.6360  -11.6440 C   0  0  0  0  0  3  0  0  0  0  0  0
  -32.9740   24.9850  -12.0750 C   0  0  0  0  0  3  0  0  0  0  0  0
  -36.7090   21.0590  -15.7720 C   0  0  0  0  0  3  0  0  0  0  0  0
  -37.5440   22.9850  -13.8900 C   0  0  0  0  0  3  0  0  0  0  0  0
  -30.7800   24.8870  -11.0680 C   0  0  0  0  0  3  0  0  0  0  0  0
  -31.9780   25.5650  -11.2930 C   0  0  0  0  0  3  0  0  0  0  0  0
  -38.0380   21.3540  -15.6200 C   0  0  0  0  0  3  0  0  0  0  0  0
  -38.4580   22.3240  -14.6700 C   0  0  0  0  0  3  0  0  0  0  0  0
  1  4  1  0  0  0  0
  2  1  1  0  0  0  0
  2  3  1  0  0  0  0
  3  5  1  0  0  0  0
  4  8  1  1  0  0  0
  4  6  1  0  0  0  0
  5 11  1  0  0  0  0
  6  5  2  0  0  0  0
  6 12  1  0  0  0  0
  7  9  2  0  0  0  0
  7  1  1  0  0  0  0
  9 10  1  0  0  0  0
 10 14  1  0  0  0  0
 10  8  2  0  0  0  0
 11 15  2  0  0  0  0
 12 16  2  0  0  0  0
 13 17  2  0  0  0  0
 13  9  1  0  0  0  0
 16 15  1  0  0  0  0
 17 18  1  0  0  0  0
 18 14  2  0  0  0  0
M  END
>  <MODEL>
5

>  <REMARK>
 VINA RESULT:    -8.858      1.419      3.199
 INTER + INTRA:          -8.858
 INTER:                  -8.858
 INTRA:                   0.000
 UNBOUND:                 0.000
  0 active torsions:
  status: ('A' for Active; 'I' for Inactive)

>  <TORSDO>
F 0

$$$$
./Protoberberina.pdbqt
 OpenBabel10282519553D

 18 21  0  0  1  0  0  0  0  0999 V2000
  -34.6110   23.7600  -12.4000 N   0  0  0  0  0  0  0  0  0  0  0  0
  -34.2500   24.6230  -11.2470 C   0  0  0  0  0  2  0  0  0  0  0  0
  -32.9750   25.4120  -11.5610 C   0  0  0  0  0  2  0  0  0  0  0  0
  -33.5920   23.1080  -13.0980 C   0  0  2  0  0  3  0  0  0  0  0  0
  -31.8810   24.4580  -11.9190 C   0  0  0  0  0  0  0  0  0  0  0  0
  -32.2150   23.3020  -12.6440 C   0  0  0  0  0  0  0  0  0  0  0  0
  -35.9000   23.6310  -12.7560 C   0  0  0  0  0  3  0  0  0  0  0  0
  -33.9250   22.3350  -14.1930 C   0  0  0  0  0  3  0  0  0  0  0  0
  -36.2800   22.8290  -13.8540 C   0  0  0  0  0  0  0  0  0  0  0  0
  -35.2690   22.1680  -14.5980 C   0  0  0  0  0  0  0  0  0  0  0  0
  -30.5630   24.6920  -11.5390 C   0  0  0  0  0  3  0  0  0  0  0  0
  -31.2230   22.3610  -12.9360 C   0  0  0  0  0  3  0  0  0  0  0  0
  -37.6450   22.6800  -14.2300 C   0  0  0  0  0  3  0  0  0  0  0  0
  -35.6370   21.3680  -15.7120 C   0  0  0  0  0  3  0  0  0  0  0  0
  -29.5750   23.7600  -11.8560 C   0  0  0  0  0  3  0  0  0  0  0  0
  -29.9070   22.5920  -12.5420 C   0  0  0  0  0  3  0  0  0  0  0  0
  -37.9720   21.9010  -15.3090 C   0  0  0  0  0  3  0  0  0  0  0  0
  -36.9580   21.2410  -16.0560 C   0  0  0  0  0  3  0  0  0  0  0  0
  1  2  1  0  0  0  0
  3  2  1  0  0  0  0
  4  8  1  6  0  0  0
  4  6  1  0  0  0  0
  4  1  1  0  0  0  0
  5  3  1  0  0  0  0
  5 11  1  0  0  0  0
  6  5  2  0  0  0  0
  7  1  1  0  0  0  0
  9  7  2  0  0  0  0
 10  8  2  0  0  0  0
 10  9  1  0  0  0  0
 12  6  1  0  0  0  0
 12 16  2  0  0  0  0
 13  9  1  0  0  0  0
 14 10  1  0  0  0  0
 15 11  2  0  0  0  0
 16 15  1  0  0  0  0
 17 13  2  0  0  0  0
 18 14  2  0  0  0  0
 18 17  1  0  0  0  0
M  END
>  <MODEL>
6

>  <REMARK>
 VINA RESULT:    -8.747      1.605      2.454
 INTER + INTRA:          -8.747
 INTER:                  -8.747
 INTRA:                   0.000
 UNBOUND:                 0.000
  0 active torsions:
  status: ('A' for Active; 'I' for Inactive)

>  <TORSDO>
F 0

$$$$
./Protoberberina.pdbqt
 OpenBabel10282519553D

 18 21  0  0  1  0  0  0  0  0999 V2000
  -33.3610   21.8530  -14.1020 N   0  0  0  0  0  0  0  0  0  0  0  0
  -33.3980   20.6650  -14.9930 C   0  0  0  0  0  2  0  0  0  0  0  0
  -34.2600   20.9600  -16.2250 C   0  0  0  0  0  2  0  0  0  0  0  0
  -34.5300   22.5950  -13.9210 C   0  0  2  0  0  3  0  0  0  0  0  0
  -35.6250   21.3780  -15.7820 C   0  0  0  0  0  0  0  0  0  0  0  0
  -35.7390   22.1520  -14.6150 C   0  0  0  0  0  0  0  0  0  0  0  0
  -32.2100   22.1950  -13.4980 C   0  0  0  0  0  3  0  0  0  0  0  0
  -34.4860   23.7190  -13.1210 C   0  0  0  0  0  3  0  0  0  0  0  0
  -32.1340   23.3240  -12.6540 C   0  0  0  0  0  0  0  0  0  0  0  0
  -33.2980   24.1120  -12.4630 C   0  0  0  0  0  0  0  0  0  0  0  0
  -36.7630   21.0080  -16.4920 C   0  0  0  0  0  3  0  0  0  0  0  0
  -37.0080   22.5020  -14.1410 C   0  0  0  0  0  3  0  0  0  0  0  0
  -30.9210   23.6860  -12.0030 C   0  0  0  0  0  3  0  0  0  0  0  0
  -33.2320   25.2570  -11.6260 C   0  0  0  0  0  3  0  0  0  0  0  0
  -38.0220   21.3820  -16.0260 C   0  0  0  0  0  3  0  0  0  0  0  0
  -38.1450   22.1170  -14.8470 C   0  0  0  0  0  3  0  0  0  0  0  0
  -30.8860   24.7960  -11.1990 C   0  0  0  0  0  3  0  0  0  0  0  0
  -32.0510   25.5870  -11.0110 C   0  0  0  0  0  3  0  0  0  0  0  0
  1  4  1  0  0  0  0
  1  7  1  0  0  0  0
  2  1  1  0  0  0  0
  3  5  1  0  0  0  0
  3  2  1  0  0  0  0
  4  8  1  6  0  0  0
  5  6  1  0  0  0  0
  6 12  2  0  0  0  0
  6  4  1  0  0  0  0
  7  9  2  0  0  0  0
  8 10  2  0  0  0  0
  9 10  1  0  0  0  0
  9 13  1  0  0  0  0
 10 14  1  0  0  0  0
 11 15  1  0  0  0  0
 11  5  2  0  0  0  0
 13 17  2  0  0  0  0
 14 18  2  0  0  0  0
 15 16  2  0  0  0  0
 16 12  1  0  0  0  0
 17 18  1  0  0  0  0
M  END
>  <MODEL>
7

>  <REMARK>
 VINA RESULT:    -8.523      1.314      6.123
 INTER + INTRA:          -8.523
 INTER:                  -8.523
 INTRA:                   0.000
 UNBOUND:                 0.000
  0 active torsions:
  status: ('A' for Active; 'I' for Inactive)

>  <TORSDO>
F 0

$$$$
./Protoberberina.pdbqt
 OpenBabel10282519553D

 18 21  0  0  1  0  0  0  0  0999 V2000
  -35.3010   22.8680  -14.0520 N   0  0  0  0  0  0  0  0  0  0  0  0
  -36.7130   23.3060  -14.1870 C   0  0  0  0  0  2  0  0  0  0  0  0
  -37.6370   22.0860  -14.2670 C   0  0  0  0  0  2  0  0  0  0  0  0
  -34.8660   21.7650  -14.7910 C   0  0  2  0  0  3  0  0  0  0  0  0
  -37.2040   21.2160  -15.4030 C   0  0  0  0  0  0  0  0  0  0  0  0
  -35.8290   21.1040  -15.6710 C   0  0  0  0  0  0  0  0  0  0  0  0
  -34.4760   23.5280  -13.2230 C   0  0  0  0  0  3  0  0  0  0  0  0
  -33.5620   21.3360  -14.6390 C   0  0  0  0  0  3  0  0  0  0  0  0
  -33.1300   23.1330  -13.0610 C   0  0  0  0  0  0  0  0  0  0  0  0
  -32.6590   22.0050  -13.7810 C   0  0  0  0  0  0  0  0  0  0  0  0
  -38.1290   20.5370  -16.1890 C   0  0  0  0  0  3  0  0  0  0  0  0
  -35.4000   20.3490  -16.7680 C   0  0  0  0  0  3  0  0  0  0  0  0
  -32.2480   23.8350  -12.1920 C   0  0  0  0  0  3  0  0  0  0  0  0
  -31.3120   21.5900  -13.6180 C   0  0  0  0  0  3  0  0  0  0  0  0
  -37.6910   19.7660  -17.2660 C   0  0  0  0  0  3  0  0  0  0  0  0
  -36.3300   19.6830  -17.5610 C   0  0  0  0  0  3  0  0  0  0  0  0
  -30.9510   23.4130  -12.0540 C   0  0  0  0  0  3  0  0  0  0  0  0
  -30.4800   22.2810  -12.7730 C   0  0  0  0  0  3  0  0  0  0  0  0
  1  7  1  0  0  0  0
  2  1  1  0  0  0  0
  3  2  1  0  0  0  0
  4  8  1  1  0  0  0
  4  1  1  0  0  0  0
  5  3  1  0  0  0  0
  6  5  1  0  0  0  0
  6  4  1  0  0  0  0
  7  9  2  0  0  0  0
  8 10  2  0  0  0  0
  9 13  1  0  0  0  0
 10 14  1  0  0  0  0
 10  9  1  0  0  0  0
 11  5  2  0  0  0  0
 12  6  2  0  0  0  0
 13 17  2  0  0  0  0
 14 18  2  0  0  0  0
 15 11  1  0  0  0  0
 16 15  2  0  0  0  0
 16 12  1  0  0  0  0
 18 17  1  0  0  0  0
M  END
>  <MODEL>
8

>  <REMARK>
 VINA RESULT:    -8.192      1.448      5.736
 INTER + INTRA:          -8.192
 INTER:                  -8.192
 INTRA:                   0.000
 UNBOUND:                 0.000
  0 active torsions:
  status: ('A' for Active; 'I' for Inactive)

>  <TORSDO>
F 0

$$$$
./Protoberberina.pdbqt
 OpenBabel10282519553D

 18 21  0  0  1  0  0  0  0  0999 V2000
  -34.9260   21.1260  -15.9770 N   0  0  0  0  0  0  0  0  0  0  0  0
  -36.2210   21.2000  -16.7010 C   0  0  0  0  0  2  0  0  0  0  0  0
  -36.8000   19.7930  -16.8860 C   0  0  0  0  0  2  0  0  0  0  0  0
  -34.0420   20.0880  -16.2840 C   0  0  2  0  0  3  0  0  0  0  0  0
  -35.8020   18.9390  -17.5990 C   0  0  0  0  0  0  0  0  0  0  0  0
  -34.4390   19.1310  -17.3170 C   0  0  0  0  0  0  0  0  0  0  0  0
  -34.6330   22.0440  -15.0410 C   0  0  0  0  0  3  0  0  0  0  0  0
  -32.8550   19.9980  -15.5860 C   0  0  0  0  0  3  0  0  0  0  0  0
  -33.4180   21.9980  -14.3250 C   0  0  0  0  0  0  0  0  0  0  0  0
  -32.5050   20.9470  -14.5970 C   0  0  0  0  0  0  0  0  0  0  0  0
  -36.1980   17.9840  -18.5290 C   0  0  0  0  0  3  0  0  0  0  0  0
  -33.4800   18.3920  -18.0170 C   0  0  0  0  0  3  0  0  0  0  0  0
  -33.0970   22.9740  -13.3390 C   0  0  0  0  0  3  0  0  0  0  0  0
  -31.2840   20.8820  -13.8760 C   0  0  0  0  0  3  0  0  0  0  0  0
  -35.2370   17.2330  -19.2040 C   0  0  0  0  0  3  0  0  0  0  0  0
  -33.8800   17.4460  -18.9570 C   0  0  0  0  0  3  0  0  0  0  0  0
  -31.9110   22.8890  -12.6590 C   0  0  0  0  0  3  0  0  0  0  0  0
  -30.9980   21.8330  -12.9290 C   0  0  0  0  0  3  0  0  0  0  0  0
  1  7  1  0  0  0  0
  2  1  1  0  0  0  0
  3  2  1  0  0  0  0
  4  1  1  0  0  0  0
  4  8  1  1  0  0  0
  5  6  1  0  0  0  0
  5  3  1  0  0  0  0
  6  4  1  0  0  0  0
  7  9  2  0  0  0  0
  8 10  2  0  0  0  0
  9 13  1  0  0  0  0
 10  9  1  0  0  0  0
 10 14  1  0  0  0  0
 11  5  2  0  0  0  0
 12  6  2  0  0  0  0
 13 17  2  0  0  0  0
 14 18  2  0  0  0  0
 15 16  2  0  0  0  0
 15 11  1  0  0  0  0
 16 12  1  0  0  0  0
 18 17  1  0  0  0  0
M  END
>  <MODEL>
9

>  <REMARK>
 VINA RESULT:    -7.761      1.768      6.542
 INTER + INTRA:          -7.761
 INTER:                  -7.761
 INTRA:                   0.000
 UNBOUND:                 0.000
  0 active torsions:
  status: ('A' for Active; 'I' for Inactive)

>  <TORSDO>
F 0

$$$$
./Protoberberina.pdbqt
 OpenBabel10282519553D

 18 21  0  0  1  0  0  0  0  0999 V2000
  -35.3610   21.3390  -15.3580 N   0  0  0  0  0  0  0  0  0  0  0  0
  -36.0020   22.3700  -14.5020 C   0  0  0  0  0  2  0  0  0  0  0  0
  -35.0720   23.5790  -14.3520 C   0  0  0  0  0  2  0  0  0  0  0  0
  -33.9920   21.0990  -15.2130 C   0  0  2  0  0  3  0  0  0  0  0  0
  -33.7580   23.1240  -13.8030 C   0  0  0  0  0  0  0  0  0  0  0  0
  -33.2620   21.8740  -14.2090 C   0  0  0  0  0  0  0  0  0  0  0  0
  -36.1000   20.6670  -16.2570 C   0  0  0  0  0  3  0  0  0  0  0  0
  -33.3900   20.1660  -16.0330 C   0  0  0  0  0  3  0  0  0  0  0  0
  -35.5230   19.6890  -17.0950 C   0  0  0  0  0  0  0  0  0  0  0  0
  -34.1320   19.4330  -16.9880 C   0  0  0  0  0  0  0  0  0  0  0  0
  -33.0400   23.9040  -12.9020 C   0  0  0  0  0  3  0  0  0  0  0  0
  -32.0680   21.3950  -13.6620 C   0  0  0  0  0  3  0  0  0  0  0  0
  -36.3030   18.9660  -18.0420 C   0  0  0  0  0  3  0  0  0  0  0  0
  -33.5370   18.4600  -17.8330 C   0  0  0  0  0  3  0  0  0  0  0  0
  -31.8380   23.4290  -12.3790 C   0  0  0  0  0  3  0  0  0  0  0  0
  -31.3590   22.1730  -12.7500 C   0  0  0  0  0  3  0  0  0  0  0  0
  -35.7040   18.0320  -18.8450 C   0  0  0  0  0  3  0  0  0  0  0  0
  -34.3090   17.7780  -18.7390 C   0  0  0  0  0  3  0  0  0  0  0  0
  1  4  1  0  0  0  0
  1  2  1  0  0  0  0
  2  3  1  0  0  0  0
  3  5  1  0  0  0  0
  4  8  1  6  0  0  0
  4  6  1  0  0  0  0
  5 11  1  0  0  0  0
  6  5  2  0  0  0  0
  6 12  1  0  0  0  0
  7  1  1  0  0  0  0
  9 10  1  0  0  0  0
  9  7  2  0  0  0  0
 10  8  2  0  0  0  0
 11 15  2  0  0  0  0
 12 16  2  0  0  0  0
 13  9  1  0  0  0  0
 14 10  1  0  0  0  0
 16 15  1  0  0  0  0
 17 18  1  0  0  0  0
 17 13  2  0  0  0  0
 18 14  2  0  0  0  0
M  END
>  <MODEL>
10

>  <REMARK>
 VINA RESULT:    -7.754      1.341      2.385
 INTER + INTRA:          -7.754
 INTER:                  -7.754
 INTRA:                   0.000
 UNBOUND:                 0.000
  0 active torsions:
  status: ('A' for Active; 'I' for Inactive)

>  <TORSDO>
F 0

$$$$
./Protoberberina.pdbqt
 OpenBabel10282519553D

 18 21  0  0  1  0  0  0  0  0999 V2000
  -36.1220   21.4260  -15.6080 N   0  0  0  0  0  0  0  0  0  0  0  0
  -34.7190   21.3450  -16.0890 C   0  0  0  0  0  2  0  0  0  0  0  0
  -33.7590   21.2580  -14.8980 C   0  0  0  0  0  2  0  0  0  0  0  0
  -36.4030   22.2030  -14.4820 C   0  0  2  0  0  3  0  0  0  0  0  0
  -33.9830   22.4320  -13.9990 C   0  0  0  0  0  0  0  0  0  0  0  0
  -35.2940   22.9100  -13.8410 C   0  0  0  0  0  0  0  0  0  0  0  0
  -37.0860   20.7480  -16.2530 C   0  0  0  0  0  3  0  0  0  0  0  0
  -37.7010   22.2490  -14.0140 C   0  0  0  0  0  3  0  0  0  0  0  0
  -38.4280   20.7910  -15.8170 C   0  0  0  0  0  0  0  0  0  0  0  0
  -38.7470   21.5560  -14.6650 C   0  0  0  0  0  0  0  0  0  0  0  0
  -32.9260   23.0520  -13.3400 C   0  0  0  0  0  3  0  0  0  0  0  0
  -35.5240   24.0460  -13.0590 C   0  0  0  0  0  3  0  0  0  0  0  0
  -39.4560   20.0830  -16.5010 C   0  0  0  0  0  3  0  0  0  0  0  0
  -40.0900   21.5980  -14.2100 C   0  0  0  0  0  3  0  0  0  0  0  0
  -33.1670   24.1690  -12.5420 C   0  0  0  0  0  3  0  0  0  0  0  0
  -34.4610   24.6720  -12.4120 C   0  0  0  0  0  3  0  0  0  0  0  0
  -40.7450   20.1430  -16.0410 C   0  0  0  0  0  3  0  0  0  0  0  0
  -41.0640   20.9060  -14.8850 C   0  0  0  0  0  3  0  0  0  0  0  0
  1  4  1  0  0  0  0
  2  1  1  0  0  0  0
  2  3  1  0  0  0  0
  3  5  1  0  0  0  0
  4  8  1  1  0  0  0
  4  6  1  0  0  0  0
  5  6  2  0  0  0  0
  5 11  1  0  0  0  0
  6 12  1  0  0  0  0
  7  9  2  0  0  0  0
  7  1  1  0  0  0  0
  9 10  1  0  0  0  0
 10 14  1  0  0  0  0
 10  8  2  0  0  0  0
 11 15  2  0  0  0  0
 12 16  2  0  0  0  0
 13 17  2  0  0  0  0
 13  9  1  0  0  0  0
 15 16  1  0  0  0  0
 17 18  1  0  0  0  0
 18 14  2  0  0  0  0
M  END
>  <MODEL>
11

>  <REMARK>
 VINA RESULT:    -7.399      2.778      4.559
 INTER + INTRA:          -7.399
 INTER:                  -7.399
 INTRA:                   0.000
 UNBOUND:                 0.000
  0 active torsions:
  status: ('A' for Active; 'I' for Inactive)

>  <TORSDO>
F 0

$$$$
./Protoberberina.pdbqt
 OpenBabel10282519553D

 18 21  0  0  1  0  0  0  0  0999 V2000
  -35.0270   21.4270  -15.2310 N   0  0  0  0  0  0  0  0  0  0  0  0
  -35.6890   20.6040  -16.2740 C   0  0  0  0  0  2  0  0  0  0  0  0
  -36.6490   21.4700  -17.0960 C   0  0  0  0  0  2  0  0  0  0  0  0
  -35.7810   22.3910  -14.5560 C   0  0  2  0  0  3  0  0  0  0  0  0
  -37.6350   22.1190  -16.1790 C   0  0  0  0  0  0  0  0  0  0  0  0
  -37.1940   22.5290  -14.9090 C   0  0  0  0  0  0  0  0  0  0  0  0
  -33.7240   21.2400  -14.9620 C   0  0  0  0  0  3  0  0  0  0  0  0
  -35.1570   23.1810  -13.6110 C   0  0  0  0  0  3  0  0  0  0  0  0
  -33.0600   22.0120  -13.9850 C   0  0  0  0  0  0  0  0  0  0  0  0
  -33.7900   23.0130  -13.2940 C   0  0  0  0  0  0  0  0  0  0  0  0
  -38.9610   22.3070  -16.5550 C   0  0  0  0  0  3  0  0  0  0  0  0
  -38.1090   23.0790  -14.0060 C   0  0  0  0  0  3  0  0  0  0  0  0
  -31.6810   21.8110  -13.6890 C   0  0  0  0  0  3  0  0  0  0  0  0
  -33.1300   23.8040  -12.3170 C   0  0  0  0  0  3  0  0  0  0  0  0
  -39.8610   22.8790  -15.6570 C   0  0  0  0  0  3  0  0  0  0  0  0
  -39.4390   23.2520  -14.3820 C   0  0  0  0  0  3  0  0  0  0  0  0
  -31.0700   22.5890  -12.7400 C   0  0  0  0  0  3  0  0  0  0  0  0
  -31.8010   23.5940  -12.0500 C   0  0  0  0  0  3  0  0  0  0  0  0
  1  7  1  0  0  0  0
  1  4  1  0  0  0  0
  2  1  1  0  0  0  0
  3  2  1  0  0  0  0
  3  5  1  0  0  0  0
  4  8  1  6  0  0  0
  5  6  1  0  0  0  0
  6  4  1  0  0  0  0
  6 12  2  0  0  0  0
  7  9  2  0  0  0  0
  8 10  2  0  0  0  0
  9 13  1  0  0  0  0
  9 10  1  0  0  0  0
 10 14  1  0  0  0  0
 11  5  2  0  0  0  0
 11 15  1  0  0  0  0
 13 17  2  0  0  0  0
 14 18  2  0  0  0  0
 15 16  2  0  0  0  0
 16 12  1  0  0  0  0
 17 18  1  0  0  0  0
M  END
>  <MODEL>
12

>  <REMARK>
 VINA RESULT:    -7.368      2.181      5.922
 INTER + INTRA:          -7.368
 INTER:                  -7.368
 INTRA:                   0.000
 UNBOUND:                 0.000
  0 active torsions:
  status: ('A' for Active; 'I' for Inactive)

>  <TORSDO>
F 0

$$$$
./Protoberberina.pdbqt
 OpenBabel10282519553D

 18 21  0  0  1  0  0  0  0  0999 V2000
   -8.2290   39.2520   10.1560 N   0  0  0  0  0  0  0  0  0  0  0  0
   -9.2170   39.0610   11.2480 C   0  0  0  0  0  2  0  0  0  0  0  0
   -8.7300   37.9720   12.2110 C   0  0  0  0  0  2  0  0  0  0  0  0
   -7.6000   38.1290    9.6120 C   0  0  2  0  0  3  0  0  0  0  0  0
   -8.4810   36.7130   11.4450 C   0  0  0  0  0  0  0  0  0  0  0  0
   -7.9610   36.8150   10.1440 C   0  0  0  0  0  0  0  0  0  0  0  0
   -7.9520   40.4930    9.7210 C   0  0  0  0  0  3  0  0  0  0  0  0
   -6.6550   38.3110    8.6220 C   0  0  0  0  0  3  0  0  0  0  0  0
   -7.0090   40.7140    8.6930 C   0  0  0  0  0  0  0  0  0  0  0  0
   -6.3380   39.5980    8.1310 C   0  0  0  0  0  0  0  0  0  0  0  0
   -8.7650   35.4650   11.9910 C   0  0  0  0  0  3  0  0  0  0  0  0
   -7.7800   35.6570    9.3810 C   0  0  0  0  0  3  0  0  0  0  0  0
   -6.7180   42.0250    8.2200 C   0  0  0  0  0  3  0  0  0  0  0  0
   -5.3790   39.8080    7.1050 C   0  0  0  0  0  3  0  0  0  0  0  0
   -8.5580   34.3140   11.2320 C   0  0  0  0  0  3  0  0  0  0  0  0
   -8.0780   34.4110    9.9260 C   0  0  0  0  0  3  0  0  0  0  0  0
   -5.7900   42.1990    7.2270 C   0  0  0  0  0  3  0  0  0  0  0  0
   -5.1150   41.0810    6.6670 C   0  0  0  0  0  3  0  0  0  0  0  0
  1  2  1  0  0  0  0
  2  3  1  0  0  0  0
  4  8  1  1  0  0  0
  4  6  1  0  0  0  0
  4  1  1  0  0  0  0
  5 11  1  0  0  0  0
  5  3  1  0  0  0  0
  6  5  2  0  0  0  0
  7  1  1  0  0  0  0
  9  7  2  0  0  0  0
 10  8  2  0  0  0  0
 10  9  1  0  0  0  0
 12 16  2  0  0  0  0
 12  6  1  0  0  0  0
 13  9  1  0  0  0  0
 14 10  1  0  0  0  0
 15 11  2  0  0  0  0
 16 15  1  0  0  0  0
 17 13  2  0  0  0  0
 18 14  2  0  0  0  0
 18 17  1  0  0  0  0
M  END
>  <MODEL>
13

>  <REMARK>
 VINA RESULT:    -7.362     36.985     38.708
 INTER + INTRA:          -7.362
 INTER:                  -7.362
 INTRA:                   0.000
 UNBOUND:                 0.000
  0 active torsions:
  status: ('A' for Active; 'I' for Inactive)

>  <TORSDO>
F 0

$$$$
./Protoberberina.pdbqt
 OpenBabel10282519553D

 18 21  0  0  1  0  0  0  0  0999 V2000
  -21.3550   -0.6010   13.3090 N   0  0  0  0  0  0  0  0  0  0  0  0
  -20.5150   -1.8160   13.1600 C   0  0  0  0  0  2  0  0  0  0  0  0
  -19.0930   -1.4250   12.7430 C   0  0  0  0  0  2  0  0  0  0  0  0
  -21.2050    0.4370   12.3850 C   0  0  2  0  0  3  0  0  0  0  0  0
  -19.1530   -0.6220   11.4840 C   0  0  0  0  0  0  0  0  0  0  0  0
  -20.2300    0.2630   11.3080 C   0  0  0  0  0  0  0  0  0  0  0  0
  -22.2290   -0.5160   14.3250 C   0  0  0  0  0  3  0  0  0  0  0  0
  -21.9600    1.5820   12.5440 C   0  0  0  0  0  3  0  0  0  0  0  0
  -23.0360    0.6280   14.5040 C   0  0  0  0  0  0  0  0  0  0  0  0
  -22.8960    1.7100   13.5960 C   0  0  0  0  0  0  0  0  0  0  0  0
  -18.1800   -0.7460   10.4980 C   0  0  0  0  0  3  0  0  0  0  0  0
  -20.3470    0.9780   10.1120 C   0  0  0  0  0  3  0  0  0  0  0  0
  -23.9720    0.7200   15.5730 C   0  0  0  0  0  3  0  0  0  0  0  0
  -23.6930    2.8710   13.7720 C   0  0  0  0  0  3  0  0  0  0  0  0
  -18.2910   -0.0110    9.3180 C   0  0  0  0  0  3  0  0  0  0  0  0
  -19.3780    0.8400    9.1210 C   0  0  0  0  0  3  0  0  0  0  0  0
  -24.7290    1.8530   15.7180 C   0  0  0  0  0  3  0  0  0  0  0  0
  -24.5870    2.9370   14.8100 C   0  0  0  0  0  3  0  0  0  0  0  0
  1  7  1  0  0  0  0
  2  1  1  0  0  0  0
  3  2  1  0  0  0  0
  4  8  1  1  0  0  0
  4  1  1  0  0  0  0
  5  3  1  0  0  0  0
  6  5  1  0  0  0  0
  6  4  1  0  0  0  0
  7  9  2  0  0  0  0
  8 10  2  0  0  0  0
  9 13  1  0  0  0  0
 10 14  1  0  0  0  0
 10  9  1  0  0  0  0
 11  5  2  0  0  0  0
 12  6  2  0  0  0  0
 13 17  2  0  0  0  0
 14 18  2  0  0  0  0
 15 11  1  0  0  0  0
 16 15  2  0  0  0  0
 16 12  1  0  0  0  0
 18 17  1  0  0  0  0
M  END
>  <MODEL>
14

>  <REMARK>
 VINA RESULT:    -7.333     34.822     36.833
 INTER + INTRA:          -7.333
 INTER:                  -7.333
 INTRA:                   0.000
 UNBOUND:                 0.000
  0 active torsions:
  status: ('A' for Active; 'I' for Inactive)

>  <TORSDO>
F 0

$$$$
./Protoberberina.pdbqt
 OpenBabel10282519553D

 18 21  0  0  1  0  0  0  0  0999 V2000
  -41.8760   29.9890    2.1270 N   0  0  0  0  0  0  0  0  0  0  0  0
  -41.3900   28.9190    3.0350 C   0  0  0  0  0  2  0  0  0  0  0  0
  -41.1710   29.4830    4.4430 C   0  0  0  0  0  2  0  0  0  0  0  0
  -41.3280   31.2690    2.2420 C   0  0  2  0  0  3  0  0  0  0  0  0
  -40.2230   30.6360    4.3690 C   0  0  0  0  0  0  0  0  0  0  0  0
  -40.2890   31.4840    3.2500 C   0  0  0  0  0  0  0  0  0  0  0  0
  -42.8330   29.7130    1.2260 C   0  0  0  0  0  3  0  0  0  0  0  0
  -41.8060   32.2730    1.4230 C   0  0  0  0  0  3  0  0  0  0  0  0
  -43.3280   30.7080    0.3550 C   0  0  0  0  0  0  0  0  0  0  0  0
  -42.8080   32.0240    0.4570 C   0  0  0  0  0  0  0  0  0  0  0  0
  -39.2850   30.8690    5.3700 C   0  0  0  0  0  3  0  0  0  0  0  0
  -39.3710   32.5310    3.1230 C   0  0  0  0  0  3  0  0  0  0  0  0
  -44.3350   30.4200   -0.6090 C   0  0  0  0  0  3  0  0  0  0  0  0
  -43.3050   33.0360   -0.4040 C   0  0  0  0  0  3  0  0  0  0  0  0
  -38.3900   31.9300    5.2470 C   0  0  0  0  0  3  0  0  0  0  0  0
  -38.4260   32.7520    4.1210 C   0  0  0  0  0  3  0  0  0  0  0  0
  -44.7960   31.4160   -1.4290 C   0  0  0  0  0  3  0  0  0  0  0  0
  -44.2770   32.7350   -1.3240 C   0  0  0  0  0  3  0  0  0  0  0  0
  1  4  1  0  0  0  0
  1  2  1  0  0  0  0
  2  3  1  0  0  0  0
  4  8  1  1  0  0  0
  4  6  1  0  0  0  0
  5  3  1  0  0  0  0
  5 11  1  0  0  0  0
  6  5  2  0  0  0  0
  7  1  1  0  0  0  0
  9 10  1  0  0  0  0
  9  7  2  0  0  0  0
 10  8  2  0  0  0  0
 12  6  1  0  0  0  0
 12 16  2  0  0  0  0
 13  9  1  0  0  0  0
 14 10  1  0  0  0  0
 15 11  2  0  0  0  0
 16 15  1  0  0  0  0
 17 18  1  0  0  0  0
 17 13  2  0  0  0  0
 18 14  2  0  0  0  0
M  END
>  <MODEL>
15

>  <REMARK>
 VINA RESULT:    -7.275     19.088     20.046
 INTER + INTRA:          -7.275
 INTER:                  -7.275
 INTRA:                   0.000
 UNBOUND:                 0.000
  0 active torsions:
  status: ('A' for Active; 'I' for Inactive)

>  <TORSDO>
F 0

$$$$
./Protoberberina.pdbqt
 OpenBabel10282519553D

 18 21  0  0  1  0  0  0  0  0999 V2000
  -19.6060   -0.2160   12.1570 N   0  0  0  0  0  0  0  0  0  0  0  0
  -18.5600   -1.1370   11.6430 C   0  0  0  0  0  2  0  0  0  0  0  0
  -18.8820   -2.5780   12.0510 C   0  0  0  0  0  2  0  0  0  0  0  0
  -20.1250   -0.4350   13.4360 C   0  0  2  0  0  3  0  0  0  0  0  0
  -19.0170   -2.6500   13.5380 C   0  0  0  0  0  0  0  0  0  0  0  0
  -19.5970   -1.5600   14.2080 C   0  0  0  0  0  0  0  0  0  0  0  0
  -20.0380    0.7960   11.3870 C   0  0  0  0  0  3  0  0  0  0  0  0
  -21.1230    0.3990   13.9000 C   0  0  0  0  0  3  0  0  0  0  0  0
  -21.0390    1.6830   11.8380 C   0  0  0  0  0  0  0  0  0  0  0  0
  -21.6020    1.4790   13.1240 C   0  0  0  0  0  0  0  0  0  0  0  0
  -18.5740   -3.7580   14.2530 C   0  0  0  0  0  3  0  0  0  0  0  0
  -19.6770   -1.5720   15.6040 C   0  0  0  0  0  3  0  0  0  0  0  0
  -21.4950    2.7640   11.0310 C   0  0  0  0  0  3  0  0  0  0  0  0
  -22.6180    2.3570   13.5850 C   0  0  0  0  0  3  0  0  0  0  0  0
  -18.6800   -3.7720   15.6440 C   0  0  0  0  0  3  0  0  0  0  0  0
  -19.2190   -2.6770   16.3180 C   0  0  0  0  0  3  0  0  0  0  0  0
  -22.4750    3.5970   11.5010 C   0  0  0  0  0  3  0  0  0  0  0  0
  -23.0420    3.3910   12.7880 C   0  0  0  0  0  3  0  0  0  0  0  0
  1  4  1  0  0  0  0
  2  3  1  0  0  0  0
  2  1  1  0  0  0  0
  3  5  1  0  0  0  0
  4  8  1  6  0  0  0
  4  6  1  0  0  0  0
  5  6  2  0  0  0  0
  5 11  1  0  0  0  0
  6 12  1  0  0  0  0
  7  9  2  0  0  0  0
  7  1  1  0  0  0  0
  9 10  1  0  0  0  0
 10 14  1  0  0  0  0
 10  8  2  0  0  0  0
 11 15  2  0  0  0  0
 12 16  2  0  0  0  0
 13 17  2  0  0  0  0
 13  9  1  0  0  0  0
 15 16  1  0  0  0  0
 17 18  1  0  0  0  0
 18 14  2  0  0  0  0
M  END
>  <MODEL>
16

>  <REMARK>
 VINA RESULT:    -7.243     35.768     37.943
 INTER + INTRA:          -7.243
 INTER:                  -7.243
 INTRA:                   0.000
 UNBOUND:                 0.000
  0 active torsions:
  status: ('A' for Active; 'I' for Inactive)

>  <TORSDO>
F 0

$$$$
./Protoberberina.pdbqt
 OpenBabel10282519553D

 18 21  0  0  1  0  0  0  0  0999 V2000
  -41.8430   32.6080    1.4580 N   0  0  0  0  0  0  0  0  0  0  0  0
  -41.0490   33.8020    1.8440 C   0  0  0  0  0  2  0  0  0  0  0  0
  -39.6130   33.3890    2.1860 C   0  0  0  0  0  2  0  0  0  0  0  0
  -41.6530   31.4170    2.1630 C   0  0  2  0  0  3  0  0  0  0  0  0
  -39.6420   32.3550    3.2650 C   0  0  0  0  0  0  0  0  0  0  0  0
  -40.6850   31.4140    3.2590 C   0  0  0  0  0  0  0  0  0  0  0  0
  -42.7150   32.6900    0.4390 C   0  0  0  0  0  3  0  0  0  0  0  0
  -42.3650   30.2980    1.7810 C   0  0  0  0  0  3  0  0  0  0  0  0
  -43.4780   31.5730    0.0360 C   0  0  0  0  0  0  0  0  0  0  0  0
  -43.2970   30.3420    0.7180 C   0  0  0  0  0  0  0  0  0  0  0  0
  -38.6730   32.3220    4.2630 C   0  0  0  0  0  3  0  0  0  0  0  0
  -40.7730   30.4770    4.2930 C   0  0  0  0  0  3  0  0  0  0  0  0
  -44.4110   31.6570   -1.0360 C   0  0  0  0  0  3  0  0  0  0  0  0
  -44.0500   29.2080    0.3150 C   0  0  0  0  0  3  0  0  0  0  0  0
  -38.7550   31.3680    5.2770 C   0  0  0  0  0  3  0  0  0  0  0  0
  -39.8090   30.4560    5.2980 C   0  0  0  0  0  3  0  0  0  0  0  0
  -45.1250   30.5460   -1.4030 C   0  0  0  0  0  3  0  0  0  0  0  0
  -44.9420   29.3120   -0.7220 C   0  0  0  0  0  3  0  0  0  0  0  0
  1  2  1  0  0  0  0
  1  4  1  0  0  0  0
  2  3  1  0  0  0  0
  3  5  1  0  0  0  0
  4  8  1  6  0  0  0
  4  6  1  0  0  0  0
  5 11  1  0  0  0  0
  6  5  2  0  0  0  0
  6 12  1  0  0  0  0
  7  1  1  0  0  0  0
  9  7  2  0  0  0  0
  9 10  1  0  0  0  0
 10  8  2  0  0  0  0
 11 15  2  0  0  0  0
 12 16  2  0  0  0  0
 13  9  1  0  0  0  0
 14 10  1  0  0  0  0
 15 16  1  0  0  0  0
 17 13  2  0  0  0  0
 17 18  1  0  0  0  0
 18 14  2  0  0  0  0
M  END
>  <MODEL>
17

>  <REMARK>
 VINA RESULT:    -7.163     18.985     19.953
 INTER + INTRA:          -7.163
 INTER:                  -7.163
 INTRA:                   0.000
 UNBOUND:                 0.000
  0 active torsions:
  status: ('A' for Active; 'I' for Inactive)

>  <TORSDO>
F 0

$$$$
./Protoberberina.pdbqt
 OpenBabel10282519553D

 18 21  0  0  1  0  0  0  0  0999 V2000
  -22.3360    2.2710   12.4600 N   0  0  0  0  0  0  0  0  0  0  0  0
  -21.9160    2.9370   11.2010 C   0  0  0  0  0  2  0  0  0  0  0  0
  -21.5640    1.8850   10.1430 C   0  0  0  0  0  2  0  0  0  0  0  0
  -21.6540    1.1250   12.8750 C   0  0  2  0  0  3  0  0  0  0  0  0
  -20.5080    0.9770   10.6830 C   0  0  0  0  0  0  0  0  0  0  0  0
  -20.5460    0.6470   12.0480 C   0  0  0  0  0  0  0  0  0  0  0  0
  -23.3640    2.7720   13.1660 C   0  0  0  0  0  3  0  0  0  0  0  0
  -22.0680    0.4850   14.0260 C   0  0  0  0  0  3  0  0  0  0  0  0
  -23.7990    2.1580   14.3600 C   0  0  0  0  0  0  0  0  0  0  0  0
  -23.1410    0.9820   14.8020 C   0  0  0  0  0  0  0  0  0  0  0  0
  -19.4990    0.4740    9.8680 C   0  0  0  0  0  3  0  0  0  0  0  0
  -19.5330   -0.1480   12.5940 C   0  0  0  0  0  3  0  0  0  0  0  0
  -24.8810    2.6900   15.1190 C   0  0  0  0  0  3  0  0  0  0  0  0
  -23.5770    0.3490   15.9960 C   0  0  0  0  0  3  0  0  0  0  0  0
  -18.5060   -0.3380   10.4150 C   0  0  0  0  0  3  0  0  0  0  0  0
  -18.5170   -0.6380   11.7770 C   0  0  0  0  0  3  0  0  0  0  0  0
  -25.2800    2.0590   16.2680 C   0  0  0  0  0  3  0  0  0  0  0  0
  -24.6220    0.8780   16.7090 C   0  0  0  0  0  3  0  0  0  0  0  0
  1  4  1  0  0  0  0
  1  7  1  0  0  0  0
  2  1  1  0  0  0  0
  3  5  1  0  0  0  0
  3  2  1  0  0  0  0
  4  8  1  6  0  0  0
  5  6  1  0  0  0  0
  6 12  2  0  0  0  0
  6  4  1  0  0  0  0
  7  9  2  0  0  0  0
  8 10  2  0  0  0  0
  9 10  1  0  0  0  0
  9 13  1  0  0  0  0
 10 14  1  0  0  0  0
 11 15  1  0  0  0  0
 11  5  2  0  0  0  0
 13 17  2  0  0  0  0
 14 18  2  0  0  0  0
 15 16  2  0  0  0  0
 16 12  1  0  0  0  0
 17 18  1  0  0  0  0
M  END
>  <MODEL>
18

>  <REMARK>
 VINA RESULT:    -7.045     34.226     36.425
 INTER + INTRA:          -7.045
 INTER:                  -7.045
 INTRA:                   0.000
 UNBOUND:                 0.000
  0 active torsions:
  status: ('A' for Active; 'I' for Inactive)

>  <TORSDO>
F 0

$$$$
