./Queleritrina.pdbqt
 OpenBabel10282519553D

 26 30  0  0  0  0  0  0  0  0999 V2000
  -30.5280   23.0040  -10.6850 O   0  0  0  0  0  0  0  0  0  0  0  0
  -31.8550   24.9010  -10.2180 O   0  0  0  0  0  0  0  0  0  0  0  0
  -32.3250   21.0010  -15.2850 N   0  0  0  0  0  0  0  0  0  0  0  0
  -33.2660   21.8090  -14.6190 C   0  0  0  0  0  0  0  0  0  0  0  0
  -34.5820   21.8320  -15.1150 C   0  0  0  0  0  0  0  0  0  0  0  0
  -32.9160   22.5830  -13.4600 C   0  0  0  0  0  0  0  0  0  0  0  0
  -35.0210   20.8120  -16.0340 C   0  0  0  0  0  0  0  0  0  0  0  0
  -34.0590   19.8830  -16.5000 C   0  0  0  0  0  0  0  0  0  0  0  0
  -33.7840   23.6410  -13.0980 C   0  0  0  0  0  0  0  0  0  0  0  0
  -32.6960   20.0370  -16.1330 C   0  0  0  0  0  3  0  0  0  0  0  0
  -35.4460   22.8770  -14.6900 C   0  0  0  0  0  2  0  0  0  0  0  0
  -31.7950   22.2660  -12.6340 C   0  0  0  0  0  3  0  0  0  0  0  0
  -35.0320   23.7950  -13.7670 C   0  0  0  0  0  3  0  0  0  0  0  0
  -33.4700   24.5270  -12.0210 C   0  0  0  0  0  3  0  0  0  0  0  0
  -31.5350   23.1020  -11.5940 C   0  0  0  0  0  0  0  0  0  0  0  0
  -34.4630   18.8480  -17.3870 C   0  0  0  0  0  0  0  0  0  0  0  0
  -36.3600   20.6860  -16.4400 C   0  0  0  0  0  3  0  0  0  0  0  0
  -32.3530   24.2450  -11.3010 C   0  0  0  0  0  0  0  0  0  0  0  0
  -30.8800   21.2690  -15.1850 C   0  0  0  0  0  1  0  0  0  0  0  0
  -35.7960   18.7540  -17.7780 C   0  0  0  0  0  0  0  0  0  0  0  0
  -36.7450   19.6680  -17.2940 C   0  0  0  0  0  3  0  0  0  0  0  0
  -30.7000   24.1350   -9.7910 C   0  0  0  0  0  2  0  0  0  0  0  0
  -33.4460   18.0910  -17.8460 O   0  0  0  0  0  0  0  0  0  0  0  0
  -33.0500   18.3070  -19.2050 C   0  0  0  0  0  1  0  0  0  0  0  0
  -36.2430   17.7150  -18.5490 O   0  0  0  0  0  0  0  0  0  0  0  0
  -36.7930   18.1530  -19.7950 C   0  0  0  0  0  1  0  0  0  0  0  0
  1 22  1  0  0  0  0
  2 22  1  0  0  0  0
  3 19  1  0  0  0  0
  3  4  1  0  0  0  0
  4  6  2  0  0  0  0
  5 11  1  0  0  0  0
  5  4  1  0  0  0  0
  6  9  1  0  0  0  0
  6 12  1  0  0  0  0
  7  5  2  0  0  0  0
  8 10  2  0  0  0  0
  8  7  1  0  0  0  0
  9 14  1  0  0  0  0
 10  3  1  0  0  0  0
 11 13  1  0  0  0  0
 12 15  2  0  0  0  0
 13  9  2  0  0  0  0
 14 18  2  0  0  0  0
 15 18  1  0  0  0  0
 15  1  1  0  0  0  0
 16  8  1  0  0  0  0
 17  7  1  0  0  0  0
 18  2  1  0  0  0  0
 20 16  2  0  0  0  0
 20 21  1  0  0  0  0
 21 17  2  0  0  0  0
 23 16  1  0  0  0  0
 24 23  1  0  0  0  0
 25 20  1  0  0  0  0
 26 25  1  0  0  0  0
M  END
>  <MODEL>
1

>  <REMARK>
 VINA RESULT:    -9.491      0.000      0.000
 INTER + INTRA:         -10.692
 INTER:                 -10.600
 INTRA:                  -0.091
 UNBOUND:                -0.091
  2 active torsions:
  status: ('A' for Active; 'I' for Inactive)
    1  A    between atoms: O3_3  and  C13_18 
    2  A    between atoms: O4_4  and  C17_22 

>  <TORSDO>
F 2

$$$$
./Queleritrina.pdbqt
 OpenBabel10282519553D

 26 30  0  0  0  0  0  0  0  0999 V2000
  -29.5730   22.1200  -12.8140 O   0  0  0  0  0  0  0  0  0  0  0  0
  -29.5680   24.0510  -11.4530 O   0  0  0  0  0  0  0  0  0  0  0  0
  -34.3480   21.9540  -15.1760 N   0  0  0  0  0  0  0  0  0  0  0  0
  -34.3310   22.7270  -13.9980 C   0  0  0  0  0  0  0  0  0  0  0  0
  -35.5620   23.1800  -13.4900 C   0  0  0  0  0  0  0  0  0  0  0  0
  -33.1060   23.0430  -13.3170 C   0  0  0  0  0  0  0  0  0  0  0  0
  -36.7910   22.5860  -13.9510 C   0  0  0  0  0  0  0  0  0  0  0  0
  -36.7150   21.6390  -15.0020 C   0  0  0  0  0  0  0  0  0  0  0  0
  -33.1320   24.1190  -12.3970 C   0  0  0  0  0  0  0  0  0  0  0  0
  -35.4660   21.3770  -15.6250 C   0  0  0  0  0  3  0  0  0  0  0  0
  -35.5510   24.2250  -12.5280 C   0  0  0  0  0  3  0  0  0  0  0  0
  -31.9180   22.2650  -13.4700 C   0  0  0  0  0  2  0  0  0  0  0  0
  -34.3730   24.7280  -12.0540 C   0  0  0  0  0  3  0  0  0  0  0  0
  -31.9430   24.5700  -11.7440 C   0  0  0  0  0  3  0  0  0  0  0  0
  -30.8070   22.6920  -12.8130 C   0  0  0  0  0  0  0  0  0  0  0  0
  -37.9060   21.0150  -15.4630 C   0  0  0  0  0  0  0  0  0  0  0  0
  -38.0360   22.8790  -13.3710 C   0  0  0  0  0  3  0  0  0  0  0  0
  -30.8100   23.8570  -11.9720 C   0  0  0  0  0  0  0  0  0  0  0  0
  -33.1620   21.8570  -16.0440 C   0  0  0  0  0  1  0  0  0  0  0  0
  -39.1270   21.3320  -14.8740 C   0  0  0  0  0  0  0  0  0  0  0  0
  -39.1880   22.2580  -13.8190 C   0  0  0  0  0  3  0  0  0  0  0  0
  -28.7550   22.9600  -11.9560 C   0  0  0  0  0  2  0  0  0  0  0  0
  -37.7250   20.2150  -16.5330 O   0  0  0  0  0  0  0  0  0  0  0  0
  -38.1890   20.7150  -17.7930 C   0  0  0  0  0  1  0  0  0  0  0  0
  -40.2790   20.6810  -15.2210 O   0  0  0  0  0  0  0  0  0  0  0  0
  -41.4420   21.2700  -14.6320 C   0  0  0  0  0  1  0  0  0  0  0  0
  1 15  1  0  0  0  0
  1 22  1  0  0  0  0
  3  4  1  0  0  0  0
  4  5  1  0  0  0  0
  4  6  2  0  0  0  0
  5 11  1  0  0  0  0
  6  9  1  0  0  0  0
  7  5  2  0  0  0  0
  7 17  1  0  0  0  0
  8  7  1  0  0  0  0
  9 13  1  0  0  0  0
  9 14  2  0  0  0  0
 10  3  1  0  0  0  0
 10  8  2  0  0  0  0
 11 13  2  0  0  0  0
 12  6  1  0  0  0  0
 12 15  1  0  0  0  0
 15 18  2  0  0  0  0
 16  8  1  0  0  0  0
 16 20  2  0  0  0  0
 18 14  1  0  0  0  0
 18  2  1  0  0  0  0
 19  3  1  0  0  0  0
 20 21  1  0  0  0  0
 21 17  2  0  0  0  0
 22  2  1  0  0  0  0
 23 16  1  0  0  0  0
 24 23  1  0  0  0  0
 25 20  1  0  0  0  0
 25 26  1  0  0  0  0
M  END
>  <MODEL>
2

>  <REMARK>
 VINA RESULT:    -9.107      2.470      3.600
 INTER + INTRA:         -10.263
 INTER:                 -10.210
 INTRA:                  -0.052
 UNBOUND:                -0.091
  2 active torsions:
  status: ('A' for Active; 'I' for Inactive)
    1  A    between atoms: O3_3  and  C13_18 
    2  A    between atoms: O4_4  and  C17_22 

>  <TORSDO>
F 2

$$$$
./Queleritrina.pdbqt
 OpenBabel10282519553D

 26 30  0  0  0  0  0  0  0  0999 V2000
  -36.4150   21.9440  -18.8300 O   0  0  0  0  0  0  0  0  0  0  0  0
  -38.6160   22.3750  -18.0910 O   0  0  0  0  0  0  0  0  0  0  0  0
  -33.3570   21.8110  -14.4670 N   0  0  0  0  0  0  0  0  0  0  0  0
  -34.5640   22.5140  -14.2860 C   0  0  0  0  0  0  0  0  0  0  0  0
  -34.7290   23.2410  -13.0930 C   0  0  0  0  0  0  0  0  0  0  0  0
  -35.6010   22.5100  -15.2810 C   0  0  0  0  0  0  0  0  0  0  0  0
  -33.5850   23.5370  -12.2680 C   0  0  0  0  0  0  0  0  0  0  0  0
  -32.3400   22.9710  -12.6360 C   0  0  0  0  0  0  0  0  0  0  0  0
  -36.8990   22.8980  -14.8700 C   0  0  0  0  0  0  0  0  0  0  0  0
  -32.2730   22.0690  -13.7300 C   0  0  0  0  0  3  0  0  0  0  0  0
  -36.0380   23.6630  -12.7350 C   0  0  0  0  0  3  0  0  0  0  0  0
  -35.3450   22.2210  -16.6560 C   0  0  0  0  0  2  0  0  0  0  0  0
  -37.0990   23.4310  -13.5640 C   0  0  0  0  0  3  0  0  0  0  0  0
  -38.0130   22.8330  -15.7620 C   0  0  0  0  0  3  0  0  0  0  0  0
  -36.4150   22.1990  -17.4940 C   0  0  0  0  0  0  0  0  0  0  0  0
  -31.1860   23.2640  -11.8590 C   0  0  0  0  0  0  0  0  0  0  0  0
  -33.6570   24.3900  -11.1540 C   0  0  0  0  0  3  0  0  0  0  0  0
  -37.7510   22.4770  -17.0460 C   0  0  0  0  0  0  0  0  0  0  0  0
  -33.2710   20.6630  -15.3860 C   0  0  0  0  0  1  0  0  0  0  0  0
  -31.2900   24.1060  -10.7560 C   0  0  0  0  0  0  0  0  0  0  0  0
  -32.5260   24.6780  -10.4120 C   0  0  0  0  0  3  0  0  0  0  0  0
  -37.8020   22.0480  -19.2460 C   0  0  0  0  0  2  0  0  0  0  0  0
  -30.0840   22.5880  -12.2400 O   0  0  0  0  0  0  0  0  0  0  0  0
  -28.8630   23.3340  -12.2970 C   0  0  0  0  0  1  0  0  0  0  0  0
  -30.1870   24.4910  -10.0430 O   0  0  0  0  0  0  0  0  0  0  0  0
  -30.0310   23.7510   -8.8280 C   0  0  0  0  0  1  0  0  0  0  0  0
  1 15  1  0  0  0  0
  2 18  1  0  0  0  0
  3  4  1  0  0  0  0
  3 10  1  0  0  0  0
  4  5  1  0  0  0  0
  5 11  1  0  0  0  0
  5  7  2  0  0  0  0
  6  9  1  0  0  0  0
  6  4  2  0  0  0  0
  7 17  1  0  0  0  0
  8  7  1  0  0  0  0
  8 16  1  0  0  0  0
  9 13  1  0  0  0  0
 10  8  2  0  0  0  0
 12  6  1  0  0  0  0
 13 11  2  0  0  0  0
 14  9  2  0  0  0  0
 15 18  2  0  0  0  0
 15 12  1  0  0  0  0
 16 20  2  0  0  0  0
 17 21  2  0  0  0  0
 18 14  1  0  0  0  0
 19  3  1  0  0  0  0
 20 21  1  0  0  0  0
 20 25  1  0  0  0  0
 22  1  1  0  0  0  0
 22  2  1  0  0  0  0
 23 16  1  0  0  0  0
 24 23  1  0  0  0  0
 25 26  1  0  0  0  0
M  END
>  <MODEL>
3

>  <REMARK>
 VINA RESULT:    -8.283      2.315      7.511
 INTER + INTRA:          -9.342
 INTER:                  -9.611
 INTRA:                   0.269
 UNBOUND:                -0.091
  2 active torsions:
  status: ('A' for Active; 'I' for Inactive)
    1  A    between atoms: O3_3  and  C13_18 
    2  A    between atoms: O4_4  and  C17_22 

>  <TORSDO>
F 2

$$$$
./Queleritrina.pdbqt
 OpenBabel10282519553D

 26 30  0  0  0  0  0  0  0  0999 V2000
  -43.2730   22.9710   -6.1280 O   0  0  0  0  0  0  0  0  0  0  0  0
  -43.6550   25.1840   -6.8620 O   0  0  0  0  0  0  0  0  0  0  0  0
  -43.9070   23.0090   -0.8360 N   0  0  0  0  0  0  0  0  0  0  0  0
  -43.6210   24.2780   -1.3760 C   0  0  0  0  0  0  0  0  0  0  0  0
  -43.3460   25.3270   -0.4810 C   0  0  0  0  0  0  0  0  0  0  0  0
  -43.5940   24.5100   -2.7940 C   0  0  0  0  0  0  0  0  0  0  0  0
  -43.0260   25.0340    0.8930 C   0  0  0  0  0  0  0  0  0  0  0  0
  -43.1210   23.6870    1.3220 C   0  0  0  0  0  0  0  0  0  0  0  0
  -43.6890   25.8510   -3.2350 C   0  0  0  0  0  0  0  0  0  0  0  0
  -43.6120   22.6970    0.4300 C   0  0  0  0  0  3  0  0  0  0  0  0
  -43.3960   26.6610   -0.9680 C   0  0  0  0  0  3  0  0  0  0  0  0
  -43.3890   23.4600   -3.7410 C   0  0  0  0  0  2  0  0  0  0  0  0
  -43.6350   26.9150   -2.2890 C   0  0  0  0  0  3  0  0  0  0  0  0
  -43.7680   26.1750   -4.6250 C   0  0  0  0  0  3  0  0  0  0  0  0
  -43.4340   23.7960   -5.0570 C   0  0  0  0  0  0  0  0  0  0  0  0
  -42.7880   23.3590    2.6650 C   0  0  0  0  0  0  0  0  0  0  0  0
  -42.5880   26.0180    1.7940 C   0  0  0  0  0  3  0  0  0  0  0  0
  -43.6490   25.1440   -5.5020 C   0  0  0  0  0  0  0  0  0  0  0  0
  -44.6710   22.0070   -1.5990 C   0  0  0  0  0  1  0  0  0  0  0  0
  -42.3650   24.3580    3.5360 C   0  0  0  0  0  0  0  0  0  0  0  0
  -42.2550   25.6870    3.0950 C   0  0  0  0  0  3  0  0  0  0  0  0
  -43.4080   23.8220   -7.2970 C   0  0  0  0  0  2  0  0  0  0  0  0
  -43.0180   22.0700    2.9860 O   0  0  0  0  0  0  0  0  0  0  0  0
  -44.1900   21.8030    3.7640 C   0  0  0  0  0  1  0  0  0  0  0  0
  -41.9400   24.0670    4.8040 O   0  0  0  0  0  0  0  0  0  0  0  0
  -40.8880   24.9320    5.2430 C   0  0  0  0  0  1  0  0  0  0  0  0
  1 15  1  0  0  0  0
  2 18  1  0  0  0  0
  3 10  1  0  0  0  0
  4  3  1  0  0  0  0
  4  5  1  0  0  0  0
  5  7  2  0  0  0  0
  6  4  2  0  0  0  0
  7  8  1  0  0  0  0
  7 17  1  0  0  0  0
  8 16  1  0  0  0  0
  9  6  1  0  0  0  0
  9 13  1  0  0  0  0
 10  8  2  0  0  0  0
 11  5  1  0  0  0  0
 12  6  1  0  0  0  0
 13 11  2  0  0  0  0
 14  9  2  0  0  0  0
 15 12  1  0  0  0  0
 16 23  1  0  0  0  0
 16 20  2  0  0  0  0
 17 21  2  0  0  0  0
 18 15  2  0  0  0  0
 18 14  1  0  0  0  0
 19  3  1  0  0  0  0
 20 25  1  0  0  0  0
 21 20  1  0  0  0  0
 22  2  1  0  0  0  0
 22  1  1  0  0  0  0
 23 24  1  0  0  0  0
 25 26  1  0  0  0  0
M  END
>  <MODEL>
4

>  <REMARK>
 VINA RESULT:    -7.908     15.433     18.660
 INTER + INTRA:          -8.924
 INTER:                  -8.874
 INTRA:                  -0.050
 UNBOUND:                -0.091
  2 active torsions:
  status: ('A' for Active; 'I' for Inactive)
    1  A    between atoms: O3_3  and  C13_18 
    2  A    between atoms: O4_4  and  C17_22 

>  <TORSDO>
F 2

$$$$
./Queleritrina.pdbqt
 OpenBabel10282519553D

 26 30  0  0  0  0  0  0  0  0999 V2000
  -38.6760   19.4090  -18.6120 O   0  0  0  0  0  0  0  0  0  0  0  0
  -37.2520   18.1040  -19.9710 O   0  0  0  0  0  0  0  0  0  0  0  0
  -35.5120   22.5240  -15.6640 N   0  0  0  0  0  0  0  0  0  0  0  0
  -34.8650   21.3750  -16.1590 C   0  0  0  0  0  0  0  0  0  0  0  0
  -33.5760   21.0860  -15.6770 C   0  0  0  0  0  0  0  0  0  0  0  0
  -35.4910   20.5070  -17.1180 C   0  0  0  0  0  0  0  0  0  0  0  0
  -33.0950   21.7330  -14.4830 C   0  0  0  0  0  0  0  0  0  0  0  0
  -33.9060   22.7380  -13.9010 C   0  0  0  0  0  0  0  0  0  0  0  0
  -34.6530   19.6250  -17.8420 C   0  0  0  0  0  0  0  0  0  0  0  0
  -35.1020   23.1410  -14.5520 C   0  0  0  0  0  3  0  0  0  0  0  0
  -32.7790   20.1560  -16.3970 C   0  0  0  0  0  2  0  0  0  0  0  0
  -36.9080   20.4470  -17.2910 C   0  0  0  0  0  3  0  0  0  0  0  0
  -33.2780   19.5040  -17.4880 C   0  0  0  0  0  3  0  0  0  0  0  0
  -35.1680   18.7940  -18.8840 C   0  0  0  0  0  3  0  0  0  0  0  0
  -37.3790   19.6230  -18.2650 C   0  0  0  0  0  0  0  0  0  0  0  0
  -33.4730   23.3770  -12.7070 C   0  0  0  0  0  0  0  0  0  0  0  0
  -31.8870   21.3720  -13.8630 C   0  0  0  0  0  3  0  0  0  0  0  0
  -36.5120   18.8170  -19.0790 C   0  0  0  0  0  0  0  0  0  0  0  0
  -36.5890   23.1820  -16.4230 C   0  0  0  0  0  1  0  0  0  0  0  0
  -32.2670   23.0040  -12.1210 C   0  0  0  0  0  0  0  0  0  0  0  0
  -31.4810   21.9920  -12.6950 C   0  0  0  0  0  3  0  0  0  0  0  0
  -38.6340   18.4450  -19.6970 C   0  0  0  0  0  2  0  0  0  0  0  0
  -34.2720   24.3870  -12.3070 O   0  0  0  0  0  0  0  0  0  0  0  0
  -35.1600   24.1070  -11.2190 C   0  0  0  0  0  1  0  0  0  0  0  0
  -31.8650   23.5240  -10.9210 O   0  0  0  0  0  0  0  0  0  0  0  0
  -30.5750   24.1390  -10.9920 C   0  0  0  0  0  1  0  0  0  0  0  0
  1 15  1  0  0  0  0
  2 22  1  0  0  0  0
  2 18  1  0  0  0  0
  3 10  1  0  0  0  0
  4  5  1  0  0  0  0
  4  3  1  0  0  0  0
  5  7  2  0  0  0  0
  6  4  2  0  0  0  0
  7  8  1  0  0  0  0
  7 17  1  0  0  0  0
  8 16  1  0  0  0  0
  9 13  2  0  0  0  0
  9  6  1  0  0  0  0
 10  8  2  0  0  0  0
 11  5  1  0  0  0  0
 12  6  1  0  0  0  0
 13 11  1  0  0  0  0
 14  9  1  0  0  0  0
 15 12  2  0  0  0  0
 16 23  1  0  0  0  0
 16 20  2  0  0  0  0
 17 21  2  0  0  0  0
 18 14  2  0  0  0  0
 18 15  1  0  0  0  0
 19  3  1  0  0  0  0
 20 25  1  0  0  0  0
 21 20  1  0  0  0  0
 22  1  1  0  0  0  0
 23 24  1  0  0  0  0
 26 25  1  0  0  0  0
M  END
>  <MODEL>
5

>  <REMARK>
 VINA RESULT:    -7.703      1.593      8.027
 INTER + INTRA:          -8.695
 INTER:                  -8.661
 INTRA:                  -0.034
 UNBOUND:                -0.091
  2 active torsions:
  status: ('A' for Active; 'I' for Inactive)
    1  A    between atoms: O3_3  and  C13_18 
    2  A    between atoms: O4_4  and  C17_22 

>  <TORSDO>
F 2

$$$$
./Queleritrina.pdbqt
 OpenBabel10282519553D

 26 30  0  0  0  0  0  0  0  0999 V2000
  -44.1630   25.1810   -2.1980 O   0  0  0  0  0  0  0  0  0  0  0  0
  -45.8200   26.1750   -3.5560 O   0  0  0  0  0  0  0  0  0  0  0  0
  -42.8520   28.8090    1.4800 N   0  0  0  0  0  0  0  0  0  0  0  0
  -43.4410   29.3650    0.3280 C   0  0  0  0  0  0  0  0  0  0  0  0
  -43.4330   30.7650    0.1950 C   0  0  0  0  0  0  0  0  0  0  0  0
  -44.0260   28.5440   -0.6960 C   0  0  0  0  0  0  0  0  0  0  0  0
  -42.5560   31.5590    1.0180 C   0  0  0  0  0  0  0  0  0  0  0  0
  -41.8150   30.8970    2.0270 C   0  0  0  0  0  0  0  0  0  0  0  0
  -44.9210   29.1680   -1.5990 C   0  0  0  0  0  0  0  0  0  0  0  0
  -42.0240   29.5110    2.2580 C   0  0  0  0  0  3  0  0  0  0  0  0
  -44.3040   31.3580   -0.7590 C   0  0  0  0  0  2  0  0  0  0  0  0
  -43.6700   27.1730   -0.8790 C   0  0  0  0  0  3  0  0  0  0  0  0
  -45.0780   30.5840   -1.5760 C   0  0  0  0  0  3  0  0  0  0  0  0
  -45.6260   28.4160   -2.5890 C   0  0  0  0  0  3  0  0  0  0  0  0
  -44.3290   26.4850   -1.8490 C   0  0  0  0  0  0  0  0  0  0  0  0
  -40.9220   31.6470    2.8400 C   0  0  0  0  0  0  0  0  0  0  0  0
  -42.3840   32.9400    0.8250 C   0  0  0  0  0  3  0  0  0  0  0  0
  -45.3240   27.0950   -2.6860 C   0  0  0  0  0  0  0  0  0  0  0  0
  -43.2270   27.4680    1.9590 C   0  0  0  0  0  1  0  0  0  0  0  0
  -40.7780   33.0150    2.6300 C   0  0  0  0  0  0  0  0  0  0  0  0
  -41.5030   33.6580    1.6130 C   0  0  0  0  0  3  0  0  0  0  0  0
  -45.0980   24.9470   -3.2840 C   0  0  0  0  0  2  0  0  0  0  0  0
  -40.3530   30.9310    3.8310 O   0  0  0  0  0  0  0  0  0  0  0  0
  -40.8310   31.1840    5.1570 C   0  0  0  0  0  1  0  0  0  0  0  0
  -39.8570   33.7520    3.3230 O   0  0  0  0  0  0  0  0  0  0  0  0
  -38.5450   33.6630    2.7580 C   0  0  0  0  0  1  0  0  0  0  0  0
  1 15  1  0  0  0  0
  2 22  1  0  0  0  0
  2 18  1  0  0  0  0
  3 19  1  0  0  0  0
  3 10  1  0  0  0  0
  4  3  1  0  0  0  0
  5  4  1  0  0  0  0
  5  7  2  0  0  0  0
  6  4  2  0  0  0  0
  7  8  1  0  0  0  0
  8 10  2  0  0  0  0
  8 16  1  0  0  0  0
  9 13  2  0  0  0  0
  9  6  1  0  0  0  0
 11  5  1  0  0  0  0
 12  6  1  0  0  0  0
 13 11  1  0  0  0  0
 14  9  1  0  0  0  0
 15 12  2  0  0  0  0
 16 23  1  0  0  0  0
 17  7  1  0  0  0  0
 17 21  2  0  0  0  0
 18 14  2  0  0  0  0
 18 15  1  0  0  0  0
 20 16  2  0  0  0  0
 20 25  1  0  0  0  0
 21 20  1  0  0  0  0
 22  1  1  0  0  0  0
 23 24  1  0  0  0  0
 26 25  1  0  0  0  0
M  END
>  <MODEL>
6

>  <REMARK>
 VINA RESULT:    -7.644     17.305     21.139
 INTER + INTRA:          -8.629
 INTER:                  -8.561
 INTRA:                  -0.068
 UNBOUND:                -0.091
  2 active torsions:
  status: ('A' for Active; 'I' for Inactive)
    1  A    between atoms: O3_3  and  C13_18 
    2  A    between atoms: O4_4  and  C17_22 

>  <TORSDO>
F 2

$$$$
./Queleritrina.pdbqt
 OpenBabel10282519553D

 26 30  0  0  0  0  0  0  0  0999 V2000
  -31.3450   20.3050  -15.1640 O   0  0  0  0  0  0  0  0  0  0  0  0
  -31.1020   22.1610  -13.7230 O   0  0  0  0  0  0  0  0  0  0  0  0
  -36.3790   20.4040  -16.9130 N   0  0  0  0  0  0  0  0  0  0  0  0
  -36.1880   21.1130  -15.7110 C   0  0  0  0  0  0  0  0  0  0  0  0
  -37.3300   21.5740  -15.0310 C   0  0  0  0  0  0  0  0  0  0  0  0
  -34.8780   21.3570  -15.1740 C   0  0  0  0  0  0  0  0  0  0  0  0
  -38.6270   21.0420  -15.3620 C   0  0  0  0  0  0  0  0  0  0  0  0
  -38.7160   20.1500  -16.4580 C   0  0  0  0  0  0  0  0  0  0  0  0
  -34.7510   22.3830  -14.2080 C   0  0  0  0  0  0  0  0  0  0  0  0
  -37.5640   19.8840  -17.2450 C   0  0  0  0  0  3  0  0  0  0  0  0
  -37.1620   22.5670  -14.0280 C   0  0  0  0  0  3  0  0  0  0  0  0
  -33.7470   20.5530  -15.5130 C   0  0  0  0  0  2  0  0  0  0  0  0
  -35.9180   23.0100  -13.6820 C   0  0  0  0  0  3  0  0  0  0  0  0
  -33.4750   22.7640  -13.6880 C   0  0  0  0  0  3  0  0  0  0  0  0
  -32.5490   20.9120  -14.9800 C   0  0  0  0  0  0  0  0  0  0  0  0
  -39.9770   19.5850  -16.7960 C   0  0  0  0  0  0  0  0  0  0  0  0
  -39.7800   21.3410  -14.6170 C   0  0  0  0  0  3  0  0  0  0  0  0
  -32.4060   22.0310  -14.0910 C   0  0  0  0  0  0  0  0  0  0  0  0
  -35.3150   20.3170  -17.9270 C   0  0  0  0  0  1  0  0  0  0  0  0
  -41.1030   19.9070  -16.0440 C   0  0  0  0  0  0  0  0  0  0  0  0
  -40.9990   20.7780  -14.9460 C   0  0  0  0  0  3  0  0  0  0  0  0
  -30.3980   21.0750  -14.3770 C   0  0  0  0  0  2  0  0  0  0  0  0
  -39.9590   18.8370  -17.9180 O   0  0  0  0  0  0  0  0  0  0  0  0
  -40.5350   19.4260  -19.0890 C   0  0  0  0  0  1  0  0  0  0  0  0
  -42.3120   19.3090  -16.2740 O   0  0  0  0  0  0  0  0  0  0  0  0
  -43.0950   19.1760  -15.0840 C   0  0  0  0  0  1  0  0  0  0  0  0
  1 15  1  0  0  0  0
  1 22  1  0  0  0  0
  3  4  1  0  0  0  0
  4  6  2  0  0  0  0
  4  5  1  0  0  0  0
  5 11  1  0  0  0  0
  6  9  1  0  0  0  0
  7  5  2  0  0  0  0
  7 17  1  0  0  0  0
  8  7  1  0  0  0  0
  9 14  2  0  0  0  0
  9 13  1  0  0  0  0
 10  3  1  0  0  0  0
 10  8  2  0  0  0  0
 11 13  2  0  0  0  0
 12  6  1  0  0  0  0
 12 15  1  0  0  0  0
 15 18  2  0  0  0  0
 16  8  1  0  0  0  0
 16 20  2  0  0  0  0
 18  2  1  0  0  0  0
 18 14  1  0  0  0  0
 19  3  1  0  0  0  0
 20 21  1  0  0  0  0
 21 17  2  0  0  0  0
 22  2  1  0  0  0  0
 23 16  1  0  0  0  0
 24 23  1  0  0  0  0
 25 20  1  0  0  0  0
 25 26  1  0  0  0  0
M  END
>  <MODEL>
7

>  <REMARK>
 VINA RESULT:    -7.457      3.215      4.740
 INTER + INTRA:          -8.420
 INTER:                  -8.370
 INTRA:                  -0.051
 UNBOUND:                -0.091
  2 active torsions:
  status: ('A' for Active; 'I' for Inactive)
    1  A    between atoms: O3_3  and  C13_18 
    2  A    between atoms: O4_4  and  C17_22 

>  <TORSDO>
F 2

$$$$
./Queleritrina.pdbqt
 OpenBabel10282519553D

 26 30  0  0  0  0  0  0  0  0999 V2000
  -19.0830    0.9940    9.0790 O   0  0  0  0  0  0  0  0  0  0  0  0
  -17.4080   -0.2730   10.1610 O   0  0  0  0  0  0  0  0  0  0  0  0
  -22.7500    2.1190   12.7810 N   0  0  0  0  0  0  0  0  0  0  0  0
  -21.9530    1.0020   13.1000 C   0  0  0  0  0  0  0  0  0  0  0  0
  -22.3280    0.2220   14.2090 C   0  0  0  0  0  0  0  0  0  0  0  0
  -20.7970    0.6470   12.3240 C   0  0  0  0  0  0  0  0  0  0  0  0
  -23.6510    0.3550   14.7660 C   0  0  0  0  0  0  0  0  0  0  0  0
  -24.4910    1.3660   14.2410 C   0  0  0  0  0  0  0  0  0  0  0  0
  -19.8530   -0.2220   12.9210 C   0  0  0  0  0  0  0  0  0  0  0  0
  -23.9850    2.2670   13.2670 C   0  0  0  0  0  3  0  0  0  0  0  0
  -21.3750   -0.6800   14.7530 C   0  0  0  0  0  3  0  0  0  0  0  0
  -20.6250    1.0640   10.9680 C   0  0  0  0  0  2  0  0  0  0  0  0
  -20.1500   -0.8400   14.1700 C   0  0  0  0  0  3  0  0  0  0  0  0
  -18.6270   -0.5540   12.2670 C   0  0  0  0  0  3  0  0  0  0  0  0
  -19.4660    0.7080   10.3530 C   0  0  0  0  0  0  0  0  0  0  0  0
  -25.8120    1.5080   14.7500 C   0  0  0  0  0  0  0  0  0  0  0  0
  -24.1390   -0.5020   15.7660 C   0  0  0  0  0  3  0  0  0  0  0  0
  -18.4560   -0.0760   11.0060 C   0  0  0  0  0  0  0  0  0  0  0  0
  -22.2090    3.2460   12.0030 C   0  0  0  0  0  1  0  0  0  0  0  0
  -26.2650    0.6480   15.7460 C   0  0  0  0  0  0  0  0  0  0  0  0
  -25.4290   -0.3650   16.2450 C   0  0  0  0  0  3  0  0  0  0  0  0
  -17.7750    0.3840    8.9210 C   0  0  0  0  0  2  0  0  0  0  0  0
  -26.4800    2.5680   14.2510 O   0  0  0  0  0  0  0  0  0  0  0  0
  -27.5800    2.2790   13.3820 C   0  0  0  0  0  1  0  0  0  0  0  0
  -27.5580    0.6870   16.1900 O   0  0  0  0  0  0  0  0  0  0  0  0
  -27.7000    1.4280   17.4060 C   0  0  0  0  0  1  0  0  0  0  0  0
  1 15  1  0  0  0  0
  2 18  1  0  0  0  0
  3  4  1  0  0  0  0
  3 10  1  0  0  0  0
  4  5  1  0  0  0  0
  5 11  1  0  0  0  0
  5  7  2  0  0  0  0
  6  9  1  0  0  0  0
  6  4  2  0  0  0  0
  7 17  1  0  0  0  0
  8 16  1  0  0  0  0
  8  7  1  0  0  0  0
  9 13  1  0  0  0  0
 10  8  2  0  0  0  0
 12  6  1  0  0  0  0
 13 11  2  0  0  0  0
 14  9  2  0  0  0  0
 15 12  1  0  0  0  0
 15 18  2  0  0  0  0
 16 20  2  0  0  0  0
 17 21  2  0  0  0  0
 18 14  1  0  0  0  0
 19  3  1  0  0  0  0
 20 25  1  0  0  0  0
 20 21  1  0  0  0  0
 22  1  1  0  0  0  0
 22  2  1  0  0  0  0
 23 16  1  0  0  0  0
 24 23  1  0  0  0  0
 25 26  1  0  0  0  0
M  END
>  <MODEL>
8

>  <REMARK>
 VINA RESULT:    -7.421     34.670     37.122
 INTER + INTRA:          -8.380
 INTER:                  -8.330
 INTRA:                  -0.050
 UNBOUND:                -0.091
  2 active torsions:
  status: ('A' for Active; 'I' for Inactive)
    1  A    between atoms: O3_3  and  C13_18 
    2  A    between atoms: O4_4  and  C17_22 

>  <TORSDO>
F 2

$$$$
./Queleritrina.pdbqt
 OpenBabel10282519553D

 26 30  0  0  0  0  0  0  0  0999 V2000
  -17.7600   -0.3710   11.1910 O   0  0  0  0  0  0  0  0  0  0  0  0
  -18.4410    0.7420    9.2230 O   0  0  0  0  0  0  0  0  0  0  0  0
  -21.9780   -0.3910   14.4490 N   0  0  0  0  0  0  0  0  0  0  0  0
  -22.0330    0.6160   13.4660 C   0  0  0  0  0  0  0  0  0  0  0  0
  -23.0460    1.5860   13.5730 C   0  0  0  0  0  0  0  0  0  0  0  0
  -21.0860    0.6740   12.3860 C   0  0  0  0  0  0  0  0  0  0  0  0
  -23.7610    1.7430   14.8140 C   0  0  0  0  0  0  0  0  0  0  0  0
  -23.4940    0.8180   15.8530 C   0  0  0  0  0  0  0  0  0  0  0  0
  -21.4350    1.4520   11.2560 C   0  0  0  0  0  0  0  0  0  0  0  0
  -22.6170   -0.2740   15.6160 C   0  0  0  0  0  3  0  0  0  0  0  0
  -23.3350    2.3880   12.4360 C   0  0  0  0  0  2  0  0  0  0  0  0
  -19.7990    0.0580   12.4590 C   0  0  0  0  0  3  0  0  0  0  0  0
  -22.6000    2.2700   11.2910 C   0  0  0  0  0  3  0  0  0  0  0  0
  -20.6030    1.4930   10.0940 C   0  0  0  0  0  3  0  0  0  0  0  0
  -19.0100    0.1390   11.3550 C   0  0  0  0  0  0  0  0  0  0  0  0
  -24.1630    0.9600   17.1000 C   0  0  0  0  0  0  0  0  0  0  0  0
  -24.6680    2.7930   15.0360 C   0  0  0  0  0  3  0  0  0  0  0  0
  -19.4190    0.8310   10.1640 C   0  0  0  0  0  0  0  0  0  0  0  0
  -21.3250   -1.6840   14.1840 C   0  0  0  0  0  1  0  0  0  0  0  0
  -25.0620    2.0060   17.2870 C   0  0  0  0  0  0  0  0  0  0  0  0
  -25.3050    2.9290   16.2560 C   0  0  0  0  0  3  0  0  0  0  0  0
  -17.3640   -0.0060    9.8430 C   0  0  0  0  0  2  0  0  0  0  0  0
  -23.9100   -0.0360   17.9730 O   0  0  0  0  0  0  0  0  0  0  0  0
  -24.9650   -0.9800   18.1890 C   0  0  0  0  0  1  0  0  0  0  0  0
  -25.6500    2.2340   18.5020 O   0  0  0  0  0  0  0  0  0  0  0  0
  -24.9140    3.1650   19.3020 C   0  0  0  0  0  1  0  0  0  0  0  0
  1 15  1  0  0  0  0
  2 22  1  0  0  0  0
  2 18  1  0  0  0  0
  3 10  1  0  0  0  0
  4  5  1  0  0  0  0
  4  3  1  0  0  0  0
  5  7  2  0  0  0  0
  6 12  1  0  0  0  0
  6  4  2  0  0  0  0
  7 17  1  0  0  0  0
  7  8  1  0  0  0  0
  8 16  1  0  0  0  0
  9 13  2  0  0  0  0
  9  6  1  0  0  0  0
 10  8  2  0  0  0  0
 11  5  1  0  0  0  0
 13 11  1  0  0  0  0
 14 18  2  0  0  0  0
 14  9  1  0  0  0  0
 15 12  2  0  0  0  0
 16 20  2  0  0  0  0
 16 23  1  0  0  0  0
 17 21  2  0  0  0  0
 18 15  1  0  0  0  0
 19  3  1  0  0  0  0
 20 25  1  0  0  0  0
 21 20  1  0  0  0  0
 22  1  1  0  0  0  0
 23 24  1  0  0  0  0
 25 26  1  0  0  0  0
M  END
>  <MODEL>
9

>  <REMARK>
 VINA RESULT:    -7.324     34.763     37.681
 INTER + INTRA:          -8.272
 INTER:                  -8.189
 INTRA:                  -0.083
 UNBOUND:                -0.091
  2 active torsions:
  status: ('A' for Active; 'I' for Inactive)
    1  A    between atoms: O3_3  and  C13_18 
    2  A    between atoms: O4_4  and  C17_22 

>  <TORSDO>
F 2

$$$$
./Queleritrina.pdbqt
 OpenBabel10282519553D

 26 30  0  0  0  0  0  0  0  0999 V2000
  -39.7670   21.2090  -18.9190 O   0  0  0  0  0  0  0  0  0  0  0  0
  -41.7500   21.4610  -17.6610 O   0  0  0  0  0  0  0  0  0  0  0  0
  -35.7350   21.4510  -15.4410 N   0  0  0  0  0  0  0  0  0  0  0  0
  -36.9200   22.0490  -14.9690 C   0  0  0  0  0  0  0  0  0  0  0  0
  -36.8540   22.7870  -13.7740 C   0  0  0  0  0  0  0  0  0  0  0  0
  -38.1640   21.9290  -15.6790 C   0  0  0  0  0  0  0  0  0  0  0  0
  -35.5750   23.2020  -13.2560 C   0  0  0  0  0  0  0  0  0  0  0  0
  -34.4120   22.7400  -13.9180 C   0  0  0  0  0  0  0  0  0  0  0  0
  -39.3520   22.2110  -14.9620 C   0  0  0  0  0  0  0  0  0  0  0  0
  -34.5320   21.8210  -14.9940 C   0  0  0  0  0  3  0  0  0  0  0  0
  -38.0690   23.1000  -13.1060 C   0  0  0  0  0  3  0  0  0  0  0  0
  -38.2270   21.6310  -17.0750 C   0  0  0  0  0  2  0  0  0  0  0  0
  -39.2750   22.7550  -13.6480 C   0  0  0  0  0  3  0  0  0  0  0  0
  -40.6400   22.0260  -15.5530 C   0  0  0  0  0  3  0  0  0  0  0  0
  -39.4630   21.4940  -17.6240 C   0  0  0  0  0  0  0  0  0  0  0  0
  -33.1340   23.1520  -13.4490 C   0  0  0  0  0  0  0  0  0  0  0  0
  -35.4500   24.0720  -12.1600 C   0  0  0  0  0  3  0  0  0  0  0  0
  -40.6680   21.6640  -16.8620 C   0  0  0  0  0  0  0  0  0  0  0  0
  -35.7720   20.2940  -16.3510 C   0  0  0  0  0  1  0  0  0  0  0  0
  -33.0420   24.0080  -12.3560 C   0  0  0  0  0  0  0  0  0  0  0  0
  -34.2030   24.4760  -11.7190 C   0  0  0  0  0  3  0  0  0  0  0  0
  -41.2170   21.1790  -18.9800 C   0  0  0  0  0  2  0  0  0  0  0  0
  -32.1020   22.5670  -14.0890 O   0  0  0  0  0  0  0  0  0  0  0  0
  -31.3630   21.5870  -13.3490 C   0  0  0  0  0  1  0  0  0  0  0  0
  -31.8380   24.5060  -11.9370 O   0  0  0  0  0  0  0  0  0  0  0  0
  -31.5010   24.0870  -10.6110 C   0  0  0  0  0  1  0  0  0  0  0  0
  1 15  1  0  0  0  0
  2 18  1  0  0  0  0
  3 10  1  0  0  0  0
  3  4  1  0  0  0  0
  4  5  1  0  0  0  0
  5  7  2  0  0  0  0
  5 11  1  0  0  0  0
  6  4  2  0  0  0  0
  6  9  1  0  0  0  0
  7 17  1  0  0  0  0
  8 16  1  0  0  0  0
  8  7  1  0  0  0  0
  9 13  1  0  0  0  0
 10  8  2  0  0  0  0
 12  6  1  0  0  0  0
 13 11  2  0  0  0  0
 14  9  2  0  0  0  0
 15 12  1  0  0  0  0
 15 18  2  0  0  0  0
 16 20  2  0  0  0  0
 17 21  2  0  0  0  0
 18 14  1  0  0  0  0
 19  3  1  0  0  0  0
 20 25  1  0  0  0  0
 20 21  1  0  0  0  0
 22  1  1  0  0  0  0
 22  2  1  0  0  0  0
 23 16  1  0  0  0  0
 23 24  1  0  0  0  0
 25 26  1  0  0  0  0
M  END
>  <MODEL>
10

>  <REMARK>
 VINA RESULT:    -7.300      3.038      7.825
 INTER + INTRA:          -8.244
 INTER:                  -8.169
 INTRA:                  -0.075
 UNBOUND:                -0.091
  2 active torsions:
  status: ('A' for Active; 'I' for Inactive)
    1  A    between atoms: O3_3  and  C13_18 
    2  A    between atoms: O4_4  and  C17_22 

>  <TORSDO>
F 2

$$$$
./Queleritrina.pdbqt
 OpenBabel10282519553D

 26 30  0  0  0  0  0  0  0  0999 V2000
  -35.3710   44.6380   11.9130 O   0  0  0  0  0  0  0  0  0  0  0  0
  -35.5780   44.9910    9.5870 O   0  0  0  0  0  0  0  0  0  0  0  0
  -36.3890   39.4730   12.7500 N   0  0  0  0  0  0  0  0  0  0  0  0
  -36.9220   39.9620   11.5410 C   0  0  0  0  0  0  0  0  0  0  0  0
  -37.7950   39.1260   10.8220 C   0  0  0  0  0  0  0  0  0  0  0  0
  -36.6060   41.2740   11.0490 C   0  0  0  0  0  0  0  0  0  0  0  0
  -38.3860   37.9800   11.4660 C   0  0  0  0  0  0  0  0  0  0  0  0
  -37.9620   37.6690   12.7810 C   0  0  0  0  0  0  0  0  0  0  0  0
  -36.8540   41.5320    9.6790 C   0  0  0  0  0  0  0  0  0  0  0  0
  -36.9190   38.4220   13.3810 C   0  0  0  0  0  3  0  0  0  0  0  0
  -38.0670   39.4440    9.4640 C   0  0  0  0  0  2  0  0  0  0  0  0
  -36.1450   42.3240   11.9000 C   0  0  0  0  0  3  0  0  0  0  0  0
  -37.5510   40.5710    8.8920 C   0  0  0  0  0  3  0  0  0  0  0  0
  -36.4830   42.7740    9.0760 C   0  0  0  0  0  3  0  0  0  0  0  0
  -35.8300   43.5080   11.3100 C   0  0  0  0  0  0  0  0  0  0  0  0
  -38.5440   36.5600   13.4550 C   0  0  0  0  0  0  0  0  0  0  0  0
  -39.3830   37.2010   10.8560 C   0  0  0  0  0  3  0  0  0  0  0  0
  -35.9730   43.7270    9.8980 C   0  0  0  0  0  0  0  0  0  0  0  0
  -35.1360   40.0120   13.3060 C   0  0  0  0  0  1  0  0  0  0  0  0
  -39.5240   35.8020   12.8220 C   0  0  0  0  0  0  0  0  0  0  0  0
  -39.9510   36.1320   11.5250 C   0  0  0  0  0  3  0  0  0  0  0  0
  -35.1990   45.6060   10.8450 C   0  0  0  0  0  2  0  0  0  0  0  0
  -37.9890   36.2970   14.6550 O   0  0  0  0  0  0  0  0  0  0  0  0
  -38.6650   36.8240   15.8020 C   0  0  0  0  0  1  0  0  0  0  0  0
  -40.1780   34.7910   13.4730 O   0  0  0  0  0  0  0  0  0  0  0  0
  -40.5300   33.7130   12.6000 C   0  0  0  0  0  1  0  0  0  0  0  0
  2 18  1  0  0  0  0
  2 22  1  0  0  0  0
  3 19  1  0  0  0  0
  3 10  1  0  0  0  0
  4  3  1  0  0  0  0
  5  7  2  0  0  0  0
  5  4  1  0  0  0  0
  6  4  2  0  0  0  0
  6 12  1  0  0  0  0
  7  8  1  0  0  0  0
  8 10  2  0  0  0  0
  8 16  1  0  0  0  0
  9  6  1  0  0  0  0
 11  5  1  0  0  0  0
 13 11  1  0  0  0  0
 13  9  2  0  0  0  0
 14  9  1  0  0  0  0
 14 18  2  0  0  0  0
 15 12  2  0  0  0  0
 15  1  1  0  0  0  0
 16 23  1  0  0  0  0
 17  7  1  0  0  0  0
 17 21  2  0  0  0  0
 18 15  1  0  0  0  0
 20 16  2  0  0  0  0
 20 25  1  0  0  0  0
 21 20  1  0  0  0  0
 22  1  1  0  0  0  0
 23 24  1  0  0  0  0
 26 25  1  0  0  0  0
M  END
>  <MODEL>
11

>  <REMARK>
 VINA RESULT:    -7.247     31.169     32.775
 INTER + INTRA:          -8.185
 INTER:                  -8.179
 INTRA:                  -0.006
 UNBOUND:                -0.091
  2 active torsions:
  status: ('A' for Active; 'I' for Inactive)
    1  A    between atoms: O3_3  and  C13_18 
    2  A    between atoms: O4_4  and  C17_22 

>  <TORSDO>
F 2

$$$$
./Queleritrina.pdbqt
 OpenBabel10282519553D

 26 30  0  0  0  0  0  0  0  0999 V2000
   -9.4900   38.4940   12.6760 O   0  0  0  0  0  0  0  0  0  0  0  0
   -9.8980   36.2070   13.1020 O   0  0  0  0  0  0  0  0  0  0  0  0
   -6.4080   38.6930    8.3320 N   0  0  0  0  0  0  0  0  0  0  0  0
   -6.3540   37.4550    9.0030 C   0  0  0  0  0  0  0  0  0  0  0  0
   -5.3860   36.5240    8.5880 C   0  0  0  0  0  0  0  0  0  0  0  0
   -7.2450   37.1400   10.0860 C   0  0  0  0  0  0  0  0  0  0  0  0
   -4.2830   36.9530    7.7650 C   0  0  0  0  0  0  0  0  0  0  0  0
   -4.2850   38.2910    7.3010 C   0  0  0  0  0  0  0  0  0  0  0  0
   -7.3900   35.7760   10.4330 C   0  0  0  0  0  0  0  0  0  0  0  0
   -5.3990   39.1290    7.5720 C   0  0  0  0  0  3  0  0  0  0  0  0
   -5.5310   35.1710    8.9980 C   0  0  0  0  0  2  0  0  0  0  0  0
   -7.8990   38.1470   10.8600 C   0  0  0  0  0  3  0  0  0  0  0  0
   -6.5450   34.7980    9.8330 C   0  0  0  0  0  3  0  0  0  0  0  0
   -8.3240   35.3560   11.4300 C   0  0  0  0  0  3  0  0  0  0  0  0
   -8.7570   37.7250   11.8260 C   0  0  0  0  0  0  0  0  0  0  0  0
   -3.1990   38.7540    6.5080 C   0  0  0  0  0  0  0  0  0  0  0  0
   -3.2020   36.1120    7.4510 C   0  0  0  0  0  3  0  0  0  0  0  0
   -8.9920   36.3340   12.0950 C   0  0  0  0  0  0  0  0  0  0  0  0
   -7.6360   39.5070    8.3260 C   0  0  0  0  0  1  0  0  0  0  0  0
   -2.1470   37.8950    6.2070 C   0  0  0  0  0  0  0  0  0  0  0  0
   -2.1450   36.5760    6.6900 C   0  0  0  0  0  3  0  0  0  0  0  0
  -10.2310   37.5600   13.5050 C   0  0  0  0  0  2  0  0  0  0  0  0
   -3.3620   40.0070    6.0370 O   0  0  0  0  0  0  0  0  0  0  0  0
   -3.7280   40.1290    4.6570 C   0  0  0  0  0  1  0  0  0  0  0  0
   -1.0390   38.3310    5.5330 O   0  0  0  0  0  0  0  0  0  0  0  0
   -0.7200   37.5060    4.4070 C   0  0  0  0  0  1  0  0  0  0  0  0
  1 22  1  0  0  0  0
  2 22  1  0  0  0  0
  3  4  1  0  0  0  0
  4  6  2  0  0  0  0
  5 11  1  0  0  0  0
  5  4  1  0  0  0  0
  6  9  1  0  0  0  0
  6 12  1  0  0  0  0
  7  5  2  0  0  0  0
  8 10  2  0  0  0  0
  8  7  1  0  0  0  0
  9 14  1  0  0  0  0
 10  3  1  0  0  0  0
 11 13  1  0  0  0  0
 12 15  2  0  0  0  0
 13  9  2  0  0  0  0
 14 18  2  0  0  0  0
 15 18  1  0  0  0  0
 15  1  1  0  0  0  0
 16  8  1  0  0  0  0
 17  7  1  0  0  0  0
 18  2  1  0  0  0  0
 19  3  1  0  0  0  0
 20 16  2  0  0  0  0
 20 21  1  0  0  0  0
 21 17  2  0  0  0  0
 23 16  1  0  0  0  0
 24 23  1  0  0  0  0
 25 20  1  0  0  0  0
 26 25  1  0  0  0  0
M  END
>  <MODEL>
12

>  <REMARK>
 VINA RESULT:    -7.189     39.349     40.359
 INTER + INTRA:          -8.121
 INTER:                  -8.038
 INTRA:                  -0.083
 UNBOUND:                -0.091
  2 active torsions:
  status: ('A' for Active; 'I' for Inactive)
    1  A    between atoms: O3_3  and  C13_18 
    2  A    between atoms: O4_4  and  C17_22 

>  <TORSDO>
F 2

$$$$
./Queleritrina.pdbqt
 OpenBabel10282519553D

 26 30  0  0  0  0  0  0  0  0999 V2000
  -32.7740   48.0840    2.5270 O   0  0  0  0  0  0  0  0  0  0  0  0
  -32.3790   45.8180    3.0630 O   0  0  0  0  0  0  0  0  0  0  0  0
  -35.3230   48.1030   -2.1540 N   0  0  0  0  0  0  0  0  0  0  0  0
  -34.5950   46.9220   -1.9160 C   0  0  0  0  0  0  0  0  0  0  0  0
  -34.4610   46.0060   -2.9760 C   0  0  0  0  0  0  0  0  0  0  0  0
  -33.9900   46.6470   -0.6420 C   0  0  0  0  0  0  0  0  0  0  0  0
  -34.7500   46.4230   -4.3240 C   0  0  0  0  0  0  0  0  0  0  0  0
  -35.2800   47.7220   -4.5170 C   0  0  0  0  0  0  0  0  0  0  0  0
  -33.6280   45.3060   -0.3690 C   0  0  0  0  0  0  0  0  0  0  0  0
  -35.5970   48.5270   -3.3910 C   0  0  0  0  0  3  0  0  0  0  0  0
  -34.0430   44.6820   -2.6750 C   0  0  0  0  0  2  0  0  0  0  0  0
  -33.6710   47.6770    0.2950 C   0  0  0  0  0  3  0  0  0  0  0  0
  -33.7100   44.3260   -1.3990 C   0  0  0  0  0  3  0  0  0  0  0  0
  -33.1100   44.9180    0.9060 C   0  0  0  0  0  3  0  0  0  0  0  0
  -33.1470   47.2890    1.4880 C   0  0  0  0  0  0  0  0  0  0  0  0
  -35.5510   48.1740   -5.8380 C   0  0  0  0  0  0  0  0  0  0  0  0
  -34.4850   45.6100   -5.4390 C   0  0  0  0  0  3  0  0  0  0  0  0
  -32.8920   45.9120    1.8060 C   0  0  0  0  0  0  0  0  0  0  0  0
  -35.9370   48.8590   -1.0490 C   0  0  0  0  0  1  0  0  0  0  0  0
  -35.2860   47.3430   -6.9220 C   0  0  0  0  0  0  0  0  0  0  0  0
  -34.7410   46.0640   -6.7210 C   0  0  0  0  0  3  0  0  0  0  0  0
  -32.2790   47.1810    3.5500 C   0  0  0  0  0  2  0  0  0  0  0  0
  -36.1500   49.3810   -5.8900 O   0  0  0  0  0  0  0  0  0  0  0  0
  -35.2880   50.5200   -5.9910 C   0  0  0  0  0  1  0  0  0  0  0  0
  -35.4390   47.7770   -8.2100 O   0  0  0  0  0  0  0  0  0  0  0  0
  -34.3370   47.4130   -9.0480 C   0  0  0  0  0  1  0  0  0  0  0  0
  1 22  1  0  0  0  0
  2 22  1  0  0  0  0
  3  4  1  0  0  0  0
  3 19  1  0  0  0  0
  4  6  2  0  0  0  0
  5 11  1  0  0  0  0
  5  4  1  0  0  0  0
  6  9  1  0  0  0  0
  6 12  1  0  0  0  0
  7  5  2  0  0  0  0
  8  7  1  0  0  0  0
  8 10  2  0  0  0  0
  9 14  1  0  0  0  0
 10  3  1  0  0  0  0
 11 13  1  0  0  0  0
 12 15  2  0  0  0  0
 13  9  2  0  0  0  0
 14 18  2  0  0  0  0
 15 18  1  0  0  0  0
 15  1  1  0  0  0  0
 16  8  1  0  0  0  0
 17  7  1  0  0  0  0
 18  2  1  0  0  0  0
 20 21  1  0  0  0  0
 20 16  2  0  0  0  0
 21 17  2  0  0  0  0
 23 16  1  0  0  0  0
 24 23  1  0  0  0  0
 25 20  1  0  0  0  0
 26 25  1  0  0  0  0
M  END
>  <MODEL>
13

>  <REMARK>
 VINA RESULT:    -7.165     26.636     28.727
 INTER + INTRA:          -8.094
 INTER:                  -8.137
 INTRA:                   0.043
 UNBOUND:                -0.091
  2 active torsions:
  status: ('A' for Active; 'I' for Inactive)
    1  A    between atoms: O3_3  and  C13_18 
    2  A    between atoms: O4_4  and  C17_22 

>  <TORSDO>
F 2

$$$$
./Queleritrina.pdbqt
 OpenBabel10282519553D

 26 30  0  0  0  0  0  0  0  0999 V2000
  -39.4060   33.4930    1.9770 O   0  0  0  0  0  0  0  0  0  0  0  0
  -38.5370   32.2710    3.8020 O   0  0  0  0  0  0  0  0  0  0  0  0
  -43.8470   30.9710    0.4520 N   0  0  0  0  0  0  0  0  0  0  0  0
  -42.9580   30.1540    1.1770 C   0  0  0  0  0  0  0  0  0  0  0  0
  -43.2330   28.7760    1.2390 C   0  0  0  0  0  0  0  0  0  0  0  0
  -41.7940   30.6900    1.8280 C   0  0  0  0  0  0  0  0  0  0  0  0
  -44.1720   28.1890    0.3180 C   0  0  0  0  0  0  0  0  0  0  0  0
  -44.8810   29.0580   -0.5480 C   0  0  0  0  0  0  0  0  0  0  0  0
  -41.1890   29.8990    2.8340 C   0  0  0  0  0  0  0  0  0  0  0  0
  -44.7210   30.4630   -0.4210 C   0  0  0  0  0  3  0  0  0  0  0  0
  -42.5680   27.9990    2.2260 C   0  0  0  0  0  3  0  0  0  0  0  0
  -41.1960   31.9260    1.4360 C   0  0  0  0  0  2  0  0  0  0  0  0
  -41.6310   28.5610    3.0450 C   0  0  0  0  0  3  0  0  0  0  0  0
  -40.0880   30.3870    3.6040 C   0  0  0  0  0  3  0  0  0  0  0  0
  -40.1280   32.3550    2.1610 C   0  0  0  0  0  0  0  0  0  0  0  0
  -45.7970   28.5090   -1.4880 C   0  0  0  0  0  0  0  0  0  0  0  0
  -44.3710   26.8020    0.2220 C   0  0  0  0  0  3  0  0  0  0  0  0
  -39.5900   31.6020    3.2590 C   0  0  0  0  0  0  0  0  0  0  0  0
  -43.9510   32.4160    0.7220 C   0  0  0  0  0  1  0  0  0  0  0  0
  -45.9780   27.1310   -1.5530 C   0  0  0  0  0  0  0  0  0  0  0  0
  -45.2550   26.2770   -0.7030 C   0  0  0  0  0  3  0  0  0  0  0  0
  -38.3820   33.4740    3.0060 C   0  0  0  0  0  2  0  0  0  0  0  0
  -46.4890   29.4350   -2.1820 O   0  0  0  0  0  0  0  0  0  0  0  0
  -47.8250   29.7000   -1.7400 C   0  0  0  0  0  1  0  0  0  0  0  0
  -46.7730   26.5590   -2.5090 O   0  0  0  0  0  0  0  0  0  0  0  0
  -46.7470   25.1290   -2.4620 C   0  0  0  0  0  1  0  0  0  0  0  0
  1 15  1  0  0  0  0
  1 22  1  0  0  0  0
  3 19  1  0  0  0  0
  3  4  1  0  0  0  0
  4  5  1  0  0  0  0
  4  6  2  0  0  0  0
  5 11  1  0  0  0  0
  6  9  1  0  0  0  0
  7  5  2  0  0  0  0
  8 10  2  0  0  0  0
  8  7  1  0  0  0  0
  9 13  1  0  0  0  0
  9 14  2  0  0  0  0
 10  3  1  0  0  0  0
 11 13  2  0  0  0  0
 12  6  1  0  0  0  0
 12 15  1  0  0  0  0
 15 18  2  0  0  0  0
 16  8  1  0  0  0  0
 17  7  1  0  0  0  0
 18 14  1  0  0  0  0
 18  2  1  0  0  0  0
 20 16  2  0  0  0  0
 20 21  1  0  0  0  0
 21 17  2  0  0  0  0
 22  2  1  0  0  0  0
 23 24  1  0  0  0  0
 23 16  1  0  0  0  0
 25 26  1  0  0  0  0
 25 20  1  0  0  0  0
M  END
>  <MODEL>
14

>  <REMARK>
 VINA RESULT:    -7.140     18.964     20.314
 INTER + INTRA:          -8.066
 INTER:                  -8.024
 INTRA:                  -0.042
 UNBOUND:                -0.091
  2 active torsions:
  status: ('A' for Active; 'I' for Inactive)
    1  A    between atoms: O3_3  and  C13_18 
    2  A    between atoms: O4_4  and  C17_22 

>  <TORSDO>
F 2

$$$$
./Queleritrina.pdbqt
 OpenBabel10282519553D

 26 30  0  0  0  0  0  0  0  0999 V2000
   -8.0320   36.8510   11.8720 O   0  0  0  0  0  0  0  0  0  0  0  0
   -9.8790   38.2470   12.3350 O   0  0  0  0  0  0  0  0  0  0  0  0
   -5.2170   39.2910    8.0600 N   0  0  0  0  0  0  0  0  0  0  0  0
   -6.5610   39.7090    8.1200 C   0  0  0  0  0  0  0  0  0  0  0  0
   -7.0400   40.5340    7.0870 C   0  0  0  0  0  0  0  0  0  0  0  0
   -7.4330   39.3060    9.1880 C   0  0  0  0  0  0  0  0  0  0  0  0
   -6.2980   40.6490    5.8570 C   0  0  0  0  0  0  0  0  0  0  0  0
   -5.0350   40.0120    5.7840 C   0  0  0  0  0  0  0  0  0  0  0  0
   -8.6130   40.0620    9.3850 C   0  0  0  0  0  0  0  0  0  0  0  0
   -4.5030   39.3700    6.9330 C   0  0  0  0  0  3  0  0  0  0  0  0
   -8.2570   41.2380    7.2950 C   0  0  0  0  0  2  0  0  0  0  0  0
   -7.1930   38.1400    9.9780 C   0  0  0  0  0  3  0  0  0  0  0  0
   -8.9800   41.0630    8.4410 C   0  0  0  0  0  3  0  0  0  0  0  0
   -9.4930   39.7990   10.4810 C   0  0  0  0  0  3  0  0  0  0  0  0
   -8.0620   37.8890   10.9930 C   0  0  0  0  0  0  0  0  0  0  0  0
   -4.2880   40.0840    4.5760 C   0  0  0  0  0  0  0  0  0  0  0  0
   -6.7990   41.3250    4.7320 C   0  0  0  0  0  3  0  0  0  0  0  0
   -9.1950   38.7300   11.2630 C   0  0  0  0  0  0  0  0  0  0  0  0
   -4.4910   38.8730    9.2710 C   0  0  0  0  0  1  0  0  0  0  0  0
   -4.8080   40.7680    3.4810 C   0  0  0  0  0  0  0  0  0  0  0  0
   -6.0700   41.3790    3.5580 C   0  0  0  0  0  3  0  0  0  0  0  0
   -9.1760   37.0460   12.7430 C   0  0  0  0  0  2  0  0  0  0  0  0
   -3.0610   39.5330    4.6580 O   0  0  0  0  0  0  0  0  0  0  0  0
   -1.9550   40.4400    4.7270 C   0  0  0  0  0  1  0  0  0  0  0  0
   -4.1660   40.7750    2.2720 O   0  0  0  0  0  0  0  0  0  0  0  0
   -4.9290   40.1400    1.2410 C   0  0  0  0  0  1  0  0  0  0  0  0
  1 22  1  0  0  0  0
  2 22  1  0  0  0  0
  3  4  1  0  0  0  0
  3 19  1  0  0  0  0
  4  6  2  0  0  0  0
  5 11  1  0  0  0  0
  5  4  1  0  0  0  0
  6  9  1  0  0  0  0
  6 12  1  0  0  0  0
  7  5  2  0  0  0  0
  8  7  1  0  0  0  0
  8 10  2  0  0  0  0
  9 14  1  0  0  0  0
 10  3  1  0  0  0  0
 11 13  1  0  0  0  0
 12 15  2  0  0  0  0
 13  9  2  0  0  0  0
 14 18  2  0  0  0  0
 15 18  1  0  0  0  0
 15  1  1  0  0  0  0
 16 23  1  0  0  0  0
 16  8  1  0  0  0  0
 17  7  1  0  0  0  0
 18  2  1  0  0  0  0
 20 21  1  0  0  0  0
 20 16  2  0  0  0  0
 21 17  2  0  0  0  0
 23 24  1  0  0  0  0
 25 20  1  0  0  0  0
 26 25  1  0  0  0  0
M  END
>  <MODEL>
15

>  <REMARK>
 VINA RESULT:    -7.134     38.428     39.863
 INTER + INTRA:          -8.059
 INTER:                  -7.996
 INTRA:                  -0.063
 UNBOUND:                -0.091
  2 active torsions:
  status: ('A' for Active; 'I' for Inactive)
    1  A    between atoms: O3_3  and  C13_18 
    2  A    between atoms: O4_4  and  C17_22 

>  <TORSDO>
F 2

$$$$
./Queleritrina.pdbqt
 OpenBabel10282519553D

 26 30  0  0  0  0  0  0  0  0999 V2000
    4.0250   18.3500   -6.5930 O   0  0  0  0  0  0  0  0  0  0  0  0
    4.2570   19.4850   -4.5350 O   0  0  0  0  0  0  0  0  0  0  0  0
   -1.0490   18.9810   -8.0990 N   0  0  0  0  0  0  0  0  0  0  0  0
   -0.8470   19.1580   -6.7160 C   0  0  0  0  0  0  0  0  0  0  0  0
   -1.9830   19.2760   -5.8960 C   0  0  0  0  0  0  0  0  0  0  0  0
    0.4690   19.2090   -6.1420 C   0  0  0  0  0  0  0  0  0  0  0  0
   -3.2750   18.8790   -6.3970 C   0  0  0  0  0  0  0  0  0  0  0  0
   -3.3680   18.4950   -7.7570 C   0  0  0  0  0  0  0  0  0  0  0  0
    0.5930   19.7690   -4.8480 C   0  0  0  0  0  0  0  0  0  0  0  0
   -2.2290   18.6010   -8.5980 C   0  0  0  0  0  3  0  0  0  0  0  0
   -1.8170   19.7910   -4.5820 C   0  0  0  0  0  3  0  0  0  0  0  0
    1.6110   18.6420   -6.7870 C   0  0  0  0  0  2  0  0  0  0  0  0
   -0.5750   20.0980   -4.1030 C   0  0  0  0  0  3  0  0  0  0  0  0
    1.8710   19.9510   -4.2340 C   0  0  0  0  0  3  0  0  0  0  0  0
    2.8120   18.7960   -6.1690 C   0  0  0  0  0  0  0  0  0  0  0  0
   -4.6230   18.0740   -8.2770 C   0  0  0  0  0  0  0  0  0  0  0  0
   -4.4170   18.8210   -5.5810 C   0  0  0  0  0  3  0  0  0  0  0  0
    2.9490   19.4720   -4.9090 C   0  0  0  0  0  0  0  0  0  0  0  0
   -0.0060   19.3390   -9.0760 C   0  0  0  0  0  1  0  0  0  0  0  0
   -5.7380   18.0340   -7.4450 C   0  0  0  0  0  0  0  0  0  0  0  0
   -5.6300   18.3980   -6.0930 C   0  0  0  0  0  3  0  0  0  0  0  0
    4.9710   18.7710   -5.5760 C   0  0  0  0  0  2  0  0  0  0  0  0
   -4.6120   17.8350   -9.6040 O   0  0  0  0  0  0  0  0  0  0  0  0
   -5.2090   18.8350  -10.4380 C   0  0  0  0  0  1  0  0  0  0  0  0
   -6.9370   17.5400   -7.8810 O   0  0  0  0  0  0  0  0  0  0  0  0
   -7.9540   18.5460   -7.9490 C   0  0  0  0  0  1  0  0  0  0  0  0
  1 15  1  0  0  0  0
  1 22  1  0  0  0  0
  3  4  1  0  0  0  0
  4  6  2  0  0  0  0
  4  5  1  0  0  0  0
  5 11  1  0  0  0  0
  6  9  1  0  0  0  0
  7  5  2  0  0  0  0
  7 17  1  0  0  0  0
  8  7  1  0  0  0  0
  9 14  2  0  0  0  0
  9 13  1  0  0  0  0
 10  3  1  0  0  0  0
 10  8  2  0  0  0  0
 11 13  2  0  0  0  0
 12 15  1  0  0  0  0
 12  6  1  0  0  0  0
 15 18  2  0  0  0  0
 16  8  1  0  0  0  0
 16 20  2  0  0  0  0
 18  2  1  0  0  0  0
 18 14  1  0  0  0  0
 19  3  1  0  0  0  0
 20 21  1  0  0  0  0
 21 17  2  0  0  0  0
 22  2  1  0  0  0  0
 23 16  1  0  0  0  0
 24 23  1  0  0  0  0
 25 20  1  0  0  0  0
 26 25  1  0  0  0  0
M  END
>  <MODEL>
16

>  <REMARK>
 VINA RESULT:    -7.115     30.218     33.548
 INTER + INTRA:          -8.038
 INTER:                  -7.950
 INTRA:                  -0.088
 UNBOUND:                -0.091
  2 active torsions:
  status: ('A' for Active; 'I' for Inactive)
    1  A    between atoms: O3_3  and  C13_18 
    2  A    between atoms: O4_4  and  C17_22 

>  <TORSDO>
F 2

$$$$
./Queleritrina.pdbqt
 OpenBabel10282519553D

 26 30  0  0  0  0  0  0  0  0999 V2000
  -40.0860   32.6540    1.1190 O   0  0  0  0  0  0  0  0  0  0  0  0
  -39.6990   33.4860    3.2950 O   0  0  0  0  0  0  0  0  0  0  0  0
  -42.8140   28.1120    1.7030 N   0  0  0  0  0  0  0  0  0  0  0  0
  -42.0920   28.4860    2.8540 C   0  0  0  0  0  0  0  0  0  0  0  0
  -42.0110   27.5610    3.9100 C   0  0  0  0  0  0  0  0  0  0  0  0
  -41.4420   29.7640    2.9600 C   0  0  0  0  0  0  0  0  0  0  0  0
  -42.3460   26.1780    3.6790 C   0  0  0  0  0  0  0  0  0  0  0  0
  -42.8660   25.8250    2.4100 C   0  0  0  0  0  0  0  0  0  0  0  0
  -41.0870   30.2070    4.2560 C   0  0  0  0  0  0  0  0  0  0  0  0
  -43.1290   26.8390    1.4510 C   0  0  0  0  0  3  0  0  0  0  0  0
  -41.5990   28.0280    5.1870 C   0  0  0  0  0  3  0  0  0  0  0  0
  -41.0730   30.5350    1.8150 C   0  0  0  0  0  2  0  0  0  0  0  0
  -41.2220   29.3280    5.3680 C   0  0  0  0  0  3  0  0  0  0  0  0
  -40.5260   31.5040    4.4720 C   0  0  0  0  0  3  0  0  0  0  0  0
  -40.5090   31.7510    2.0440 C   0  0  0  0  0  0  0  0  0  0  0  0
  -43.1830   24.4660    2.1410 C   0  0  0  0  0  0  0  0  0  0  0  0
  -42.1350   25.1790    4.6440 C   0  0  0  0  0  3  0  0  0  0  0  0
  -40.2590   32.2480    3.3680 C   0  0  0  0  0  0  0  0  0  0  0  0
  -43.3740   29.1230    0.7900 C   0  0  0  0  0  1  0  0  0  0  0  0
  -42.9700   23.4990    3.1190 C   0  0  0  0  0  0  0  0  0  0  0  0
  -42.4350   23.8570    4.3680 C   0  0  0  0  0  3  0  0  0  0  0  0
  -39.5630   33.7740    1.8800 C   0  0  0  0  0  2  0  0  0  0  0  0
  -43.7680   24.2670    0.9420 O   0  0  0  0  0  0  0  0  0  0  0  0
  -42.9500   23.6880   -0.0810 C   0  0  0  0  0  1  0  0  0  0  0  0
  -43.1680   22.1690    2.8650 O   0  0  0  0  0  0  0  0  0  0  0  0
  -43.5210   21.4320    4.0400 C   0  0  0  0  0  1  0  0  0  0  0  0
  1 22  1  0  0  0  0
  1 15  1  0  0  0  0
  2 18  1  0  0  0  0
  3  4  1  0  0  0  0
  4  6  2  0  0  0  0
  4  5  1  0  0  0  0
  5 11  1  0  0  0  0
  6  9  1  0  0  0  0
  7  5  2  0  0  0  0
  7 17  1  0  0  0  0
  8  7  1  0  0  0  0
  9 14  2  0  0  0  0
  9 13  1  0  0  0  0
 10  3  1  0  0  0  0
 10  8  2  0  0  0  0
 11 13  2  0  0  0  0
 12 15  1  0  0  0  0
 12  6  1  0  0  0  0
 15 18  2  0  0  0  0
 16  8  1  0  0  0  0
 16 20  2  0  0  0  0
 18 14  1  0  0  0  0
 19  3  1  0  0  0  0
 20 21  1  0  0  0  0
 21 17  2  0  0  0  0
 22  2  1  0  0  0  0
 23 16  1  0  0  0  0
 24 23  1  0  0  0  0
 25 20  1  0  0  0  0
 25 26  1  0  0  0  0
M  END
>  <MODEL>
17

>  <REMARK>
 VINA RESULT:    -7.083     18.366     20.954
 INTER + INTRA:          -8.003
 INTER:                  -7.974
 INTRA:                  -0.029
 UNBOUND:                -0.091
  2 active torsions:
  status: ('A' for Active; 'I' for Inactive)
    1  A    between atoms: O3_3  and  C13_18 
    2  A    between atoms: O4_4  and  C17_22 

>  <TORSDO>
F 2

$$$$
./Queleritrina.pdbqt
 OpenBabel10282519553D

 26 30  0  0  0  0  0  0  0  0999 V2000
  -26.5790   -0.9310   17.0260 O   0  0  0  0  0  0  0  0  0  0  0  0
  -27.7330    1.0980   16.6600 O   0  0  0  0  0  0  0  0  0  0  0  0
  -21.8220   -0.4040   14.6810 N   0  0  0  0  0  0  0  0  0  0  0  0
  -22.7990    0.4740   14.1730 C   0  0  0  0  0  0  0  0  0  0  0  0
  -22.4820    1.2160   13.0200 C   0  0  0  0  0  0  0  0  0  0  0  0
  -24.0890    0.6140   14.7910 C   0  0  0  0  0  0  0  0  0  0  0  0
  -21.3570    0.8300   12.2060 C   0  0  0  0  0  0  0  0  0  0  0  0
  -20.5310   -0.2220   12.6730 C   0  0  0  0  0  0  0  0  0  0  0  0
  -24.8430    1.7680   14.4690 C   0  0  0  0  0  0  0  0  0  0  0  0
  -20.7740   -0.7930   13.9500 C   0  0  0  0  0  3  0  0  0  0  0  0
  -23.2910    2.3370   12.6950 C   0  0  0  0  0  2  0  0  0  0  0  0
  -24.6530   -0.3970   15.6280 C   0  0  0  0  0  3  0  0  0  0  0  0
  -24.3930    2.6450   13.4410 C   0  0  0  0  0  3  0  0  0  0  0  0
  -26.0920    2.0430   15.1070 C   0  0  0  0  0  3  0  0  0  0  0  0
  -25.8580   -0.1290   16.1970 C   0  0  0  0  0  0  0  0  0  0  0  0
  -19.4280   -0.6440   11.8810 C   0  0  0  0  0  0  0  0  0  0  0  0
  -21.0830    1.4270   10.9640 C   0  0  0  0  0  3  0  0  0  0  0  0
  -26.5660    1.0980   15.9600 C   0  0  0  0  0  0  0  0  0  0  0  0
  -21.8360   -0.8290   16.0910 C   0  0  0  0  0  1  0  0  0  0  0  0
  -19.1780   -0.0280   10.6590 C   0  0  0  0  0  0  0  0  0  0  0  0
  -20.0150    1.0010   10.1960 C   0  0  0  0  0  3  0  0  0  0  0  0
  -27.7820   -0.1810   17.3420 C   0  0  0  0  0  2  0  0  0  0  0  0
  -18.6550   -1.5770   12.4740 O   0  0  0  0  0  0  0  0  0  0  0  0
  -18.8540   -2.9320   12.0560 C   0  0  0  0  0  1  0  0  0  0  0  0
  -18.1880   -0.4720    9.8240 O   0  0  0  0  0  0  0  0  0  0  0  0
  -17.0410    0.3830    9.8290 C   0  0  0  0  0  1  0  0  0  0  0  0
  1 22  1  0  0  0  0
  2 22  1  0  0  0  0
  3 19  1  0  0  0  0
  4  3  1  0  0  0  0
  4  6  2  0  0  0  0
  5  4  1  0  0  0  0
  6 12  1  0  0  0  0
  7  8  1  0  0  0  0
  7  5  2  0  0  0  0
  8 10  2  0  0  0  0
  9  6  1  0  0  0  0
  9 14  1  0  0  0  0
 10  3  1  0  0  0  0
 11  5  1  0  0  0  0
 11 13  1  0  0  0  0
 12 15  2  0  0  0  0
 13  9  2  0  0  0  0
 14 18  2  0  0  0  0
 15  1  1  0  0  0  0
 16 23  1  0  0  0  0
 16  8  1  0  0  0  0
 17  7  1  0  0  0  0
 18 15  1  0  0  0  0
 18  2  1  0  0  0  0
 20 16  2  0  0  0  0
 21 20  1  0  0  0  0
 21 17  2  0  0  0  0
 24 23  1  0  0  0  0
 25 26  1  0  0  0  0
 25 20  1  0  0  0  0
M  END
>  <MODEL>
18

>  <REMARK>
 VINA RESULT:    -6.892     35.544     37.481
 INTER + INTRA:          -7.789
 INTER:                  -7.737
 INTRA:                  -0.051
 UNBOUND:                -0.091
  2 active torsions:
  status: ('A' for Active; 'I' for Inactive)
    1  A    between atoms: O3_3  and  C13_18 
    2  A    between atoms: O4_4  and  C17_22 

>  <TORSDO>
F 2

$$$$
./Queleritrina.pdbqt
 OpenBabel10282519553D

 26 30  0  0  0  0  0  0  0  0999 V2000
  -42.9630   22.5150    4.8570 O   0  0  0  0  0  0  0  0  0  0  0  0
  -44.0930   21.9030    2.8750 O   0  0  0  0  0  0  0  0  0  0  0  0
  -42.6250   27.8350    4.8190 N   0  0  0  0  0  0  0  0  0  0  0  0
  -42.8190   27.2750    3.5410 C   0  0  0  0  0  0  0  0  0  0  0  0
  -42.7050   28.1250    2.4270 C   0  0  0  0  0  0  0  0  0  0  0  0
  -43.1140   25.8800    3.3610 C   0  0  0  0  0  0  0  0  0  0  0  0
  -42.0740   29.4130    2.5680 C   0  0  0  0  0  0  0  0  0  0  0  0
  -41.6970   29.8260    3.8690 C   0  0  0  0  0  0  0  0  0  0  0  0
  -43.6710   25.4880    2.1200 C   0  0  0  0  0  0  0  0  0  0  0  0
  -42.0320   29.0190    4.9880 C   0  0  0  0  0  3  0  0  0  0  0  0
  -43.2250   27.6800    1.1820 C   0  0  0  0  0  2  0  0  0  0  0  0
  -42.7870   24.8930    4.3390 C   0  0  0  0  0  3  0  0  0  0  0  0
  -43.7590   26.4290    1.0530 C   0  0  0  0  0  3  0  0  0  0  0  0
  -44.0870   24.1420    1.8810 C   0  0  0  0  0  3  0  0  0  0  0  0
  -43.1610   23.6120    4.0770 C   0  0  0  0  0  0  0  0  0  0  0  0
  -41.0490   31.0800    4.0400 C   0  0  0  0  0  0  0  0  0  0  0  0
  -41.7860   30.2380    1.4680 C   0  0  0  0  0  3  0  0  0  0  0  0
  -43.8340   23.2390    2.8640 C   0  0  0  0  0  0  0  0  0  0  0  0
  -43.1900   27.2030    6.0240 C   0  0  0  0  0  1  0  0  0  0  0  0
  -40.7850   31.8800    2.9320 C   0  0  0  0  0  0  0  0  0  0  0  0
  -41.1440   31.4510    1.6440 C   0  0  0  0  0  3  0  0  0  0  0  0
  -43.5440   21.4060    4.1220 C   0  0  0  0  0  2  0  0  0  0  0  0
  -40.8350   31.4140    5.3290 O   0  0  0  0  0  0  0  0  0  0  0  0
  -41.7510   32.3490    5.9090 C   0  0  0  0  0  1  0  0  0  0  0  0
  -40.0750   33.0440    3.0440 O   0  0  0  0  0  0  0  0  0  0  0  0
  -39.6450   33.5500    1.7760 C   0  0  0  0  0  1  0  0  0  0  0  0
  2 22  1  0  0  0  0
  3 10  1  0  0  0  0
  3 19  1  0  0  0  0
  4  3  1  0  0  0  0
  5  7  2  0  0  0  0
  5  4  1  0  0  0  0
  6  4  2  0  0  0  0
  6 12  1  0  0  0  0
  7  8  1  0  0  0  0
  8 16  1  0  0  0  0
  8 10  2  0  0  0  0
  9  6  1  0  0  0  0
 11  5  1  0  0  0  0
 13 11  1  0  0  0  0
 13  9  2  0  0  0  0
 14  9  1  0  0  0  0
 14 18  2  0  0  0  0
 15 12  2  0  0  0  0
 15  1  1  0  0  0  0
 16 23  1  0  0  0  0
 17 21  2  0  0  0  0
 17  7  1  0  0  0  0
 18  2  1  0  0  0  0
 18 15  1  0  0  0  0
 20 25  1  0  0  0  0
 20 16  2  0  0  0  0
 21 20  1  0  0  0  0
 22  1  1  0  0  0  0
 23 24  1  0  0  0  0
 26 25  1  0  0  0  0
M  END
>  <MODEL>
19

>  <REMARK>
 VINA RESULT:    -6.871     20.160     22.315
 INTER + INTRA:          -7.766
 INTER:                  -7.720
 INTRA:                  -0.046
 UNBOUND:                -0.091
  2 active torsions:
  status: ('A' for Active; 'I' for Inactive)
    1  A    between atoms: O3_3  and  C13_18 
    2  A    between atoms: O4_4  and  C17_22 

>  <TORSDO>
F 2

$$$$
./Queleritrina.pdbqt
 OpenBabel10282519553D

 26 30  0  0  0  0  0  0  0  0999 V2000
  -43.2650   23.5730   -2.3510 O   0  0  0  0  0  0  0  0  0  0  0  0
  -44.7490   23.9430   -4.1510 O   0  0  0  0  0  0  0  0  0  0  0  0
  -43.5200   27.9140    0.7310 N   0  0  0  0  0  0  0  0  0  0  0  0
  -43.9420   28.1400   -0.5940 C   0  0  0  0  0  0  0  0  0  0  0  0
  -44.1790   29.4680   -0.9920 C   0  0  0  0  0  0  0  0  0  0  0  0
  -44.1190   27.0630   -1.5280 C   0  0  0  0  0  0  0  0  0  0  0  0
  -43.6750   30.5570   -0.1940 C   0  0  0  0  0  0  0  0  0  0  0  0
  -43.0560   30.2430    1.0400 C   0  0  0  0  0  0  0  0  0  0  0  0
  -44.9010   27.3210   -2.6800 C   0  0  0  0  0  0  0  0  0  0  0  0
  -43.0340   28.8970    1.4940 C   0  0  0  0  0  3  0  0  0  0  0  0
  -44.9220   29.6940   -2.1820 C   0  0  0  0  0  2  0  0  0  0  0  0
  -43.4700   25.7990   -1.3750 C   0  0  0  0  0  3  0  0  0  0  0  0
  -45.3330   28.6490   -2.9600 C   0  0  0  0  0  3  0  0  0  0  0  0
  -45.2130   26.2870   -3.6160 C   0  0  0  0  0  3  0  0  0  0  0  0
  -43.7550   24.8410   -2.2970 C   0  0  0  0  0  0  0  0  0  0  0  0
  -42.5240   31.2910    1.8400 C   0  0  0  0  0  0  0  0  0  0  0  0
  -43.7390   31.8960   -0.6160 C   0  0  0  0  0  3  0  0  0  0  0  0
  -44.6450   25.0730   -3.4000 C   0  0  0  0  0  0  0  0  0  0  0  0
  -43.7200   26.6100    1.3850 C   0  0  0  0  0  1  0  0  0  0  0  0
  -42.6100   32.6090    1.3990 C   0  0  0  0  0  0  0  0  0  0  0  0
  -43.2080   32.9080    0.1640 C   0  0  0  0  0  3  0  0  0  0  0  0
  -43.8770   22.9700   -3.5210 C   0  0  0  0  0  2  0  0  0  0  0  0
  -42.0560   30.8830    3.0360 O   0  0  0  0  0  0  0  0  0  0  0  0
  -42.8560   31.2030    4.1800 C   0  0  0  0  0  1  0  0  0  0  0  0
  -42.0230   33.6340    2.0900 O   0  0  0  0  0  0  0  0  0  0  0  0
  -40.6050   33.6840    1.9010 C   0  0  0  0  0  1  0  0  0  0  0  0
  1 15  1  0  0  0  0
  2 22  1  0  0  0  0
  2 18  1  0  0  0  0
  3 19  1  0  0  0  0
  3 10  1  0  0  0  0
  4  3  1  0  0  0  0
  5  4  1  0  0  0  0
  5  7  2  0  0  0  0
  6 12  1  0  0  0  0
  6  4  2  0  0  0  0
  7  8  1  0  0  0  0
  8 10  2  0  0  0  0
  8 16  1  0  0  0  0
  9  6  1  0  0  0  0
 11  5  1  0  0  0  0
 13  9  2  0  0  0  0
 13 11  1  0  0  0  0
 14 18  2  0  0  0  0
 14  9  1  0  0  0  0
 15 12  2  0  0  0  0
 16 23  1  0  0  0  0
 17  7  1  0  0  0  0
 17 21  2  0  0  0  0
 18 15  1  0  0  0  0
 20 16  2  0  0  0  0
 20 25  1  0  0  0  0
 21 20  1  0  0  0  0
 22  1  1  0  0  0  0
 23 24  1  0  0  0  0
 26 25  1  0  0  0  0
M  END
>  <MODEL>
20

>  <REMARK>
 VINA RESULT:    -6.861     16.498     20.329
 INTER + INTRA:          -7.755
 INTER:                  -7.718
 INTRA:                  -0.037
 UNBOUND:                -0.091
  2 active torsions:
  status: ('A' for Active; 'I' for Inactive)
    1  A    between atoms: O3_3  and  C13_18 
    2  A    between atoms: O4_4  and  C17_22 

>  <TORSDO>
F 2

$$$$
