./Quelilutina.pdbqt
 OpenBabel10282519553D

 28 32  0  0  0  0  0  0  0  0999 V2000
  -39.1480   20.2390  -16.2000 O   0  0  0  0  0  0  0  0  0  0  0  0
  -38.0990   18.8230  -17.7700 O   0  0  0  0  0  0  0  0  0  0  0  0
  -35.3140   23.3870  -14.2190 N   0  0  0  0  0  0  0  0  0  0  0  0
  -34.8390   22.1820  -14.7520 C   0  0  0  0  0  0  0  0  0  0  0  0
  -33.4760   21.8570  -14.5430 C   0  0  0  0  0  0  0  0  0  0  0  0
  -32.7470   22.5090  -13.4990 C   0  0  0  0  0  0  0  0  0  0  0  0
  -35.6820   21.2890  -15.5060 C   0  0  0  0  0  0  0  0  0  0  0  0
  -33.3510   23.6050  -12.8430 C   0  0  0  0  0  0  0  0  0  0  0  0
  -35.0540   20.3590  -16.3630 C   0  0  0  0  0  0  0  0  0  0  0  0
  -34.6180   24.0660  -13.3130 C   0  0  0  0  0  3  0  0  0  0  0  0
  -32.8810   20.9120  -15.4290 C   0  0  0  0  0  2  0  0  0  0  0  0
  -33.6320   20.2380  -16.3460 C   0  0  0  0  0  3  0  0  0  0  0  0
  -37.1000   21.2680  -15.3510 C   0  0  0  0  0  3  0  0  0  0  0  0
  -31.4550   22.1130  -13.0240 C   0  0  0  0  0  0  0  0  0  0  0  0
  -32.7100   24.2890  -11.7950 C   0  0  0  0  0  0  0  0  0  0  0  0
  -35.8060   19.4920  -17.2130 C   0  0  0  0  0  3  0  0  0  0  0  0
  -37.8000   20.4220  -16.1570 C   0  0  0  0  0  0  0  0  0  0  0  0
  -37.1600   19.5520  -17.1020 C   0  0  0  0  0  0  0  0  0  0  0  0
  -36.5180   24.0340  -14.7620 C   0  0  0  0  0  1  0  0  0  0  0  0
  -31.4070   23.9410  -11.4330 C   0  0  0  0  0  0  0  0  0  0  0  0
  -30.7940   22.8220  -12.0410 C   0  0  0  0  0  3  0  0  0  0  0  0
  -39.3750   19.2280  -17.2160 C   0  0  0  0  0  2  0  0  0  0  0  0
  -30.9790   20.9970  -13.6050 O   0  0  0  0  0  0  0  0  0  0  0  0
  -29.5720   20.9030  -13.8260 C   0  0  0  0  0  1  0  0  0  0  0  0
  -30.6110   24.5350  -10.5350 O   0  0  0  0  0  0  0  0  0  0  0  0
  -30.3530   23.8660   -9.3000 C   0  0  0  0  0  1  0  0  0  0  0  0
  -33.3550   25.3550  -11.2240 O   0  0  0  0  0  0  0  0  0  0  0  0
  -32.7450   26.6050  -11.5580 C   0  0  0  0  0  1  0  0  0  0  0  0
  1 17  1  0  0  0  0
  2 22  1  0  0  0  0
  2 18  1  0  0  0  0
  3 10  1  0  0  0  0
  4  5  1  0  0  0  0
  4  3  1  0  0  0  0
  5  6  2  0  0  0  0
  6 14  1  0  0  0  0
  6  8  1  0  0  0  0
  7 13  1  0  0  0  0
  7  4  2  0  0  0  0
  8 15  1  0  0  0  0
  9 12  2  0  0  0  0
  9  7  1  0  0  0  0
 10  8  2  0  0  0  0
 11  5  1  0  0  0  0
 12 11  1  0  0  0  0
 14 21  2  0  0  0  0
 15 20  2  0  0  0  0
 15 27  1  0  0  0  0
 16 18  2  0  0  0  0
 16  9  1  0  0  0  0
 17 13  2  0  0  0  0
 18 17  1  0  0  0  0
 19  3  1  0  0  0  0
 20 25  1  0  0  0  0
 21 20  1  0  0  0  0
 22  1  1  0  0  0  0
 23 14  1  0  0  0  0
 24 23  1  0  0  0  0
 25 26  1  0  0  0  0
 28 27  1  0  0  0  0
M  END
>  <MODEL>
1

>  <REMARK>
 VINA RESULT:    -9.512      0.000      0.000
 INTER + INTRA:         -11.294
 INTER:                 -11.180
 INTRA:                  -0.114
 UNBOUND:                -0.114
  3 active torsions:
  status: ('A' for Active; 'I' for Inactive)
    1  A    between atoms: O3_3  and  C11_17 
    2  A    between atoms: O4_4  and  C12_18 
    3  A    between atoms: O5_5  and  C17_23 

>  <TORSDO>
F 3

$$$$
./Quelilutina.pdbqt
 OpenBabel10282519553D

 28 32  0  0  0  0  0  0  0  0999 V2000
  -30.5000   22.9300  -10.6890 O   0  0  0  0  0  0  0  0  0  0  0  0
  -31.7990   24.8380  -10.1980 O   0  0  0  0  0  0  0  0  0  0  0  0
  -32.3430   21.0070  -15.3180 N   0  0  0  0  0  0  0  0  0  0  0  0
  -33.2720   21.7890  -14.6200 C   0  0  0  0  0  0  0  0  0  0  0  0
  -34.6030   21.8240  -15.1000 C   0  0  0  0  0  0  0  0  0  0  0  0
  -35.0610   20.7970  -15.9850 C   0  0  0  0  0  0  0  0  0  0  0  0
  -32.9090   22.5550  -13.4540 C   0  0  0  0  0  0  0  0  0  0  0  0
  -34.1120   19.8950  -16.5150 C   0  0  0  0  0  0  0  0  0  0  0  0
  -33.7490   23.6300  -13.0870 C   0  0  0  0  0  0  0  0  0  0  0  0
  -32.7320   20.1060  -16.2150 C   0  0  0  0  0  3  0  0  0  0  0  0
  -35.4180   22.9250  -14.7040 C   0  0  0  0  0  2  0  0  0  0  0  0
  -34.9800   23.8280  -13.7820 C   0  0  0  0  0  3  0  0  0  0  0  0
  -31.7930   22.2140  -12.6340 C   0  0  0  0  0  3  0  0  0  0  0  0
  -36.4280   20.5740  -16.3530 C   0  0  0  0  0  0  0  0  0  0  0  0
  -34.4810   18.8480  -17.3760 C   0  0  0  0  0  0  0  0  0  0  0  0
  -33.4270   24.4990  -12.0000 C   0  0  0  0  0  3  0  0  0  0  0  0
  -31.5120   23.0430  -11.5910 C   0  0  0  0  0  0  0  0  0  0  0  0
  -32.3110   24.1950  -11.2860 C   0  0  0  0  0  0  0  0  0  0  0  0
  -30.9000   21.2680  -15.2120 C   0  0  0  0  0  1  0  0  0  0  0  0
  -35.8080   18.7290  -17.7970 C   0  0  0  0  0  0  0  0  0  0  0  0
  -36.7880   19.5890  -17.2500 C   0  0  0  0  0  3  0  0  0  0  0  0
  -30.6510   24.0570   -9.7860 C   0  0  0  0  0  2  0  0  0  0  0  0
  -37.3000   21.3890  -15.7300 O   0  0  0  0  0  0  0  0  0  0  0  0
  -38.4670   20.8050  -15.1510 C   0  0  0  0  0  1  0  0  0  0  0  0
  -36.3220   17.8630  -18.6790 O   0  0  0  0  0  0  0  0  0  0  0  0
  -37.0350   18.3760  -19.8060 C   0  0  0  0  0  1  0  0  0  0  0  0
  -33.4960   18.0280  -17.8630 O   0  0  0  0  0  0  0  0  0  0  0  0
  -33.1340   18.3490  -19.2090 C   0  0  0  0  0  1  0  0  0  0  0  0
  1 22  1  0  0  0  0
  2 22  1  0  0  0  0
  3 19  1  0  0  0  0
  3  4  1  0  0  0  0
  4  7  2  0  0  0  0
  5 11  1  0  0  0  0
  5  4  1  0  0  0  0
  6  5  2  0  0  0  0
  7  9  1  0  0  0  0
  7 13  1  0  0  0  0
  8 10  2  0  0  0  0
  8  6  1  0  0  0  0
  9 16  1  0  0  0  0
 10  3  1  0  0  0  0
 11 12  1  0  0  0  0
 12  9  2  0  0  0  0
 13 17  2  0  0  0  0
 14  6  1  0  0  0  0
 14 23  1  0  0  0  0
 15  8  1  0  0  0  0
 16 18  2  0  0  0  0
 17 18  1  0  0  0  0
 17  1  1  0  0  0  0
 18  2  1  0  0  0  0
 20 15  2  0  0  0  0
 20 21  1  0  0  0  0
 21 14  2  0  0  0  0
 23 24  1  0  0  0  0
 25 20  1  0  0  0  0
 26 25  1  0  0  0  0
 27 15  1  0  0  0  0
 28 27  1  0  0  0  0
M  END
>  <MODEL>
2

>  <REMARK>
 VINA RESULT:    -9.234      1.780      7.974
 INTER + INTRA:         -10.967
 INTER:                 -10.789
 INTRA:                  -0.178
 UNBOUND:                -0.114
  3 active torsions:
  status: ('A' for Active; 'I' for Inactive)
    1  A    between atoms: O3_3  and  C11_17 
    2  A    between atoms: O4_4  and  C12_18 
    3  A    between atoms: O5_5  and  C17_23 

>  <TORSDO>
F 3

$$$$
./Quelilutina.pdbqt
 OpenBabel10282519553D

 28 32  0  0  0  0  0  0  0  0999 V2000
  -32.1910   24.9540  -11.5960 O   0  0  0  0  0  0  0  0  0  0  0  0
  -30.3580   23.5050  -11.2640 O   0  0  0  0  0  0  0  0  0  0  0  0
  -35.6360   22.3260  -14.7190 N   0  0  0  0  0  0  0  0  0  0  0  0
  -34.3150   21.8730  -14.8270 C   0  0  0  0  0  0  0  0  0  0  0  0
  -34.0160   20.9410  -15.8490 C   0  0  0  0  0  0  0  0  0  0  0  0
  -34.9090   20.7970  -16.9580 C   0  0  0  0  0  0  0  0  0  0  0  0
  -33.2760   22.3150  -13.9310 C   0  0  0  0  0  0  0  0  0  0  0  0
  -36.1650   21.4420  -16.8950 C   0  0  0  0  0  0  0  0  0  0  0  0
  -32.1220   21.5080  -13.8150 C   0  0  0  0  0  0  0  0  0  0  0  0
  -36.5180   22.1290  -15.6940 C   0  0  0  0  0  3  0  0  0  0  0  0
  -32.8410   20.1480  -15.6940 C   0  0  0  0  0  2  0  0  0  0  0  0
  -31.9630   20.3830  -14.6780 C   0  0  0  0  0  3  0  0  0  0  0  0
  -33.3470   23.5590  -13.2360 C   0  0  0  0  0  3  0  0  0  0  0  0
  -34.6190   20.0800  -18.1630 C   0  0  0  0  0  0  0  0  0  0  0  0
  -37.0930   21.3670  -17.9480 C   0  0  0  0  0  0  0  0  0  0  0  0
  -31.0780   21.8180  -12.8910 C   0  0  0  0  0  3  0  0  0  0  0  0
  -32.3330   23.8450  -12.3730 C   0  0  0  0  0  0  0  0  0  0  0  0
  -31.2120   22.9700  -12.1820 C   0  0  0  0  0  0  0  0  0  0  0  0
  -36.1460   22.8860  -13.4580 C   0  0  0  0  0  1  0  0  0  0  0  0
  -36.8170   20.5700  -19.0620 C   0  0  0  0  0  0  0  0  0  0  0  0
  -35.5520   19.9480  -19.1720 C   0  0  0  0  0  3  0  0  0  0  0  0
  -30.9440   24.7720  -10.8760 C   0  0  0  0  0  2  0  0  0  0  0  0
  -33.3690   19.5840  -18.2150 O   0  0  0  0  0  0  0  0  0  0  0  0
  -32.7230   19.5260  -19.4870 C   0  0  0  0  0  1  0  0  0  0  0  0
  -37.6110   20.3030  -20.1060 O   0  0  0  0  0  0  0  0  0  0  0  0
  -38.2900   19.0470  -20.1470 C   0  0  0  0  0  1  0  0  0  0  0  0
  -38.2970   22.0040  -17.8010 O   0  0  0  0  0  0  0  0  0  0  0  0
  -38.3440   23.2500  -18.5030 C   0  0  0  0  0  1  0  0  0  0  0  0
  1 22  1  0  0  0  0
  2 22  1  0  0  0  0
  3 19  1  0  0  0  0
  4  3  1  0  0  0  0
  4  7  2  0  0  0  0
  5 11  1  0  0  0  0
  5  4  1  0  0  0  0
  6  8  1  0  0  0  0
  6  5  2  0  0  0  0
  7  9  1  0  0  0  0
  7 13  1  0  0  0  0
  8 10  2  0  0  0  0
  9 16  1  0  0  0  0
 10  3  1  0  0  0  0
 11 12  1  0  0  0  0
 12  9  2  0  0  0  0
 13 17  2  0  0  0  0
 14  6  1  0  0  0  0
 15 27  1  0  0  0  0
 15  8  1  0  0  0  0
 16 18  2  0  0  0  0
 17 18  1  0  0  0  0
 17  1  1  0  0  0  0
 18  2  1  0  0  0  0
 20 15  2  0  0  0  0
 21 20  1  0  0  0  0
 21 14  2  0  0  0  0
 23 14  1  0  0  0  0
 24 23  1  0  0  0  0
 25 20  1  0  0  0  0
 26 25  1  0  0  0  0
 28 27  1  0  0  0  0
M  END
>  <MODEL>
3

>  <REMARK>
 VINA RESULT:    -8.216      1.964      7.437
 INTER + INTRA:          -9.771
 INTER:                  -9.509
 INTRA:                  -0.262
 UNBOUND:                -0.114
  3 active torsions:
  status: ('A' for Active; 'I' for Inactive)
    1  A    between atoms: O3_3  and  C11_17 
    2  A    between atoms: O4_4  and  C12_18 
    3  A    between atoms: O5_5  and  C17_23 

>  <TORSDO>
F 3

$$$$
./Quelilutina.pdbqt
 OpenBabel10282519553D

 28 32  0  0  0  0  0  0  0  0999 V2000
  -31.8570   25.1430  -11.1620 O   0  0  0  0  0  0  0  0  0  0  0  0
  -30.1670   23.5400  -11.5420 O   0  0  0  0  0  0  0  0  0  0  0  0
  -36.2770   23.2460  -13.4840 N   0  0  0  0  0  0  0  0  0  0  0  0
  -35.0900   22.7250  -14.0150 C   0  0  0  0  0  0  0  0  0  0  0  0
  -35.1790   21.9360  -15.1870 C   0  0  0  0  0  0  0  0  0  0  0  0
  -36.3490   22.0190  -16.0070 C   0  0  0  0  0  0  0  0  0  0  0  0
  -33.8070   22.9580  -13.4020 C   0  0  0  0  0  0  0  0  0  0  0  0
  -37.4640   22.7310  -15.5140 C   0  0  0  0  0  0  0  0  0  0  0  0
  -32.7570   22.0660  -13.7160 C   0  0  0  0  0  0  0  0  0  0  0  0
  -37.4050   23.2560  -14.1870 C   0  0  0  0  0  3  0  0  0  0  0  0
  -34.0970   21.0500  -15.4680 C   0  0  0  0  0  2  0  0  0  0  0  0
  -32.9580   21.0720  -14.7200 C   0  0  0  0  0  3  0  0  0  0  0  0
  -33.5540   24.0870  -12.5680 C   0  0  0  0  0  3  0  0  0  0  0  0
  -36.4730   21.4690  -17.3240 C   0  0  0  0  0  0  0  0  0  0  0  0
  -38.6450   22.8750  -16.2630 C   0  0  0  0  0  0  0  0  0  0  0  0
  -31.4750   22.1640  -13.0940 C   0  0  0  0  0  3  0  0  0  0  0  0
  -32.3200   24.1730  -11.9970 C   0  0  0  0  0  0  0  0  0  0  0  0
  -31.2890   23.2050  -12.2390 C   0  0  0  0  0  0  0  0  0  0  0  0
  -36.3640   23.6470  -12.0710 C   0  0  0  0  0  1  0  0  0  0  0  0
  -38.7660   22.2350  -17.4990 C   0  0  0  0  0  0  0  0  0  0  0  0
  -37.6510   21.5510  -18.0380 C   0  0  0  0  0  3  0  0  0  0  0  0
  -30.4880   24.7720  -10.8510 C   0  0  0  0  0  2  0  0  0  0  0  0
  -35.3430   20.9020  -17.7870 O   0  0  0  0  0  0  0  0  0  0  0  0
  -34.8980   21.2650  -19.0940 C   0  0  0  0  0  1  0  0  0  0  0  0
  -39.8370   22.1790  -18.3010 O   0  0  0  0  0  0  0  0  0  0  0  0
  -40.6690   21.0200  -18.2540 C   0  0  0  0  0  1  0  0  0  0  0  0
  -39.6890   23.5650  -15.7050 O   0  0  0  0  0  0  0  0  0  0  0  0
  -39.7930   24.9000  -16.2080 C   0  0  0  0  0  1  0  0  0  0  0  0
  1 22  1  0  0  0  0
  2 22  1  0  0  0  0
  3 19  1  0  0  0  0
  4  3  1  0  0  0  0
  4  7  2  0  0  0  0
  5  4  1  0  0  0  0
  6  8  1  0  0  0  0
  6  5  2  0  0  0  0
  7 13  1  0  0  0  0
  8 10  2  0  0  0  0
  9  7  1  0  0  0  0
  9 16  1  0  0  0  0
 10  3  1  0  0  0  0
 11  5  1  0  0  0  0
 11 12  1  0  0  0  0
 12  9  2  0  0  0  0
 13 17  2  0  0  0  0
 14  6  1  0  0  0  0
 15 27  1  0  0  0  0
 15  8  1  0  0  0  0
 16 18  2  0  0  0  0
 17  1  1  0  0  0  0
 18 17  1  0  0  0  0
 18  2  1  0  0  0  0
 20 15  2  0  0  0  0
 21 20  1  0  0  0  0
 21 14  2  0  0  0  0
 23 14  1  0  0  0  0
 24 23  1  0  0  0  0
 25 26  1  0  0  0  0
 25 20  1  0  0  0  0
 28 27  1  0  0  0  0
M  END
>  <MODEL>
4

>  <REMARK>
 VINA RESULT:    -8.191      1.920      7.403
 INTER + INTRA:          -9.741
 INTER:                  -9.472
 INTRA:                  -0.270
 UNBOUND:                -0.114
  3 active torsions:
  status: ('A' for Active; 'I' for Inactive)
    1  A    between atoms: O3_3  and  C11_17 
    2  A    between atoms: O4_4  and  C12_18 
    3  A    between atoms: O5_5  and  C17_23 

>  <TORSDO>
F 3

$$$$
./Quelilutina.pdbqt
 OpenBabel10282519553D

 28 32  0  0  1  0  0  0  0  0999 V2000
  -36.9050   18.0600  -18.7190 O   0  0  0  0  0  0  0  0  0  0  0  0
  -34.9080   17.3840  -19.7790 O   0  0  0  0  0  0  0  0  0  0  0  0
  -35.6350   22.2400  -15.6460 N   0  0  0  0  0  0  0  0  0  0  0  0
  -34.5510   21.4030  -15.9400 C   0  0  0  0  0  0  0  0  0  0  0  0
  -33.3300   21.6370  -15.2610 C   0  0  0  0  0  0  0  0  0  0  0  0
  -33.3300   22.4030  -14.0530 C   0  0  0  0  0  0  0  0  0  0  0  0
  -34.6420   20.3380  -16.9070 C   0  0  0  0  0  0  0  0  0  0  0  0
  -34.5170   23.0760  -13.6850 C   0  0  0  0  0  0  0  0  0  0  0  0
  -33.4380   19.8490  -17.4610 C   0  0  1  0  0  3  0  0  0  0  0  0
  -35.6290   23.0340  -14.5800 C   0  0  0  0  0  3  0  0  0  0  0  0
  -32.1390   21.1240  -15.8530 C   0  0  0  0  0  3  0  0  0  0  0  0
  -32.1900   20.3150  -16.9490 C   0  0  0  0  0  3  0  0  0  0  0  0
  -35.8830   19.7260  -17.2510 C   0  0  0  0  0  3  0  0  0  0  0  0
  -32.2260   22.5140  -13.1470 C   0  0  0  0  0  0  0  0  0  0  0  0
  -34.6060   23.8350  -12.5050 C   0  0  0  0  0  0  0  0  0  0  0  0
  -33.4320   18.8560  -18.4870 C   0  0  0  0  0  3  0  0  0  0  0  0
  -35.8550   18.7680  -18.2190 C   0  0  0  0  0  0  0  0  0  0  0  0
  -34.6380   18.3480  -18.8530 C   0  0  0  0  0  0  0  0  0  0  0  0
  -36.7480   22.4020  -16.5950 C   0  0  0  0  0  1  0  0  0  0  0  0
  -33.4750   24.0070  -11.7020 C   0  0  0  0  0  0  0  0  0  0  0  0
  -32.2860   23.3110  -12.0210 C   0  0  0  0  0  3  0  0  0  0  0  0
  -36.3380   17.1690  -19.7150 C   0  0  0  0  0  2  0  0  0  0  0  0
  -31.1630   21.7620  -13.4880 O   0  0  0  0  0  0  0  0  0  0  0  0
  -29.8810   22.1510  -12.9950 C   0  0  0  0  0  1  0  0  0  0  0  0
  -33.3460   24.7640  -10.6050 O   0  0  0  0  0  0  0  0  0  0  0  0
  -32.0830   24.7960   -9.9400 C   0  0  0  0  0  1  0  0  0  0  0  0
  -35.7870   24.4730  -12.2300 O   0  0  0  0  0  0  0  0  0  0  0  0
  -36.5750   23.7710  -11.2640 C   0  0  0  0  0  1  0  0  0  0  0  0
  1 17  1  0  0  0  0
  2 22  1  0  0  0  0
  2 18  1  0  0  0  0
  3 10  1  0  0  0  0
  4  3  1  0  0  0  0
  4  5  1  0  0  0  0
  5  6  2  0  0  0  0
  6  8  1  0  0  0  0
  6 14  1  0  0  0  0
  7  4  2  0  0  0  0
  8 15  1  0  0  0  0
  9 16  1  1  0  0  0
  9 12  1  0  0  0  0
  9  7  1  0  0  0  0
 10  8  2  0  0  0  0
 11  5  1  0  0  0  0
 12 11  2  0  0  0  0
 13  7  1  0  0  0  0
 14 21  2  0  0  0  0
 15 27  1  0  0  0  0
 15 20  2  0  0  0  0
 17 13  2  0  0  0  0
 18 16  2  0  0  0  0
 18 17  1  0  0  0  0
 19  3  1  0  0  0  0
 20 25  1  0  0  0  0
 21 20  1  0  0  0  0
 22  1  1  0  0  0  0
 23 14  1  0  0  0  0
 23 24  1  0  0  0  0
 25 26  1  0  0  0  0
 27 28  1  0  0  0  0
M  END
>  <MODEL>
5

>  <REMARK>
 VINA RESULT:    -7.971      1.763      2.509
 INTER + INTRA:          -9.483
 INTER:                  -9.240
 INTRA:                  -0.243
 UNBOUND:                -0.114
  3 active torsions:
  status: ('A' for Active; 'I' for Inactive)
    1  A    between atoms: O3_3  and  C11_17 
    2  A    between atoms: O4_4  and  C12_18 
    3  A    between atoms: O5_5  and  C17_23 

>  <TORSDO>
F 3

$$$$
./Quelilutina.pdbqt
 OpenBabel10282519553D

 28 32  0  0  0  0  0  0  0  0999 V2000
  -42.7730   19.9440  -14.9640 O   0  0  0  0  0  0  0  0  0  0  0  0
  -42.5410   18.6680  -16.9360 O   0  0  0  0  0  0  0  0  0  0  0  0
  -38.2690   22.7720  -14.4660 N   0  0  0  0  0  0  0  0  0  0  0  0
  -38.1290   21.6160  -15.2450 C   0  0  0  0  0  0  0  0  0  0  0  0
  -36.8230   21.2350  -15.6360 C   0  0  0  0  0  0  0  0  0  0  0  0
  -35.6930   21.7580  -14.9300 C   0  0  0  0  0  0  0  0  0  0  0  0
  -39.2610   20.8270  -15.6590 C   0  0  0  0  0  0  0  0  0  0  0  0
  -35.9080   22.7970  -13.9970 C   0  0  0  0  0  0  0  0  0  0  0  0
  -39.0950   19.9720  -16.7720 C   0  0  0  0  0  0  0  0  0  0  0  0
  -37.2240   23.3370  -13.8700 C   0  0  0  0  0  3  0  0  0  0  0  0
  -36.6980   20.3700  -16.7630 C   0  0  0  0  0  2  0  0  0  0  0  0
  -37.7970   19.8130  -17.3460 C   0  0  0  0  0  3  0  0  0  0  0  0
  -40.4940   20.8270  -14.9420 C   0  0  0  0  0  3  0  0  0  0  0  0
  -34.3480   21.2830  -15.0580 C   0  0  0  0  0  0  0  0  0  0  0  0
  -34.8560   23.3540  -13.2490 C   0  0  0  0  0  0  0  0  0  0  0  0
  -40.1800   19.2160  -17.3090 C   0  0  0  0  0  3  0  0  0  0  0  0
  -41.5130   20.0860  -15.4600 C   0  0  0  0  0  0  0  0  0  0  0  0
  -41.3670   19.3000  -16.6520 C   0  0  0  0  0  0  0  0  0  0  0  0
  -39.5450   23.5030  -14.4160 C   0  0  0  0  0  1  0  0  0  0  0  0
  -33.5430   22.9370  -13.4800 C   0  0  0  0  0  0  0  0  0  0  0  0
  -33.3020   21.8700  -14.3760 C   0  0  0  0  0  3  0  0  0  0  0  0
  -43.4560   19.0470  -15.8790 C   0  0  0  0  0  2  0  0  0  0  0  0
  -34.2210   20.2190  -15.8730 O   0  0  0  0  0  0  0  0  0  0  0  0
  -32.9050   19.8280  -16.2640 C   0  0  0  0  0  1  0  0  0  0  0  0
  -32.4150   23.4150  -12.9390 O   0  0  0  0  0  0  0  0  0  0  0  0
  -31.3820   22.4960  -12.5860 C   0  0  0  0  0  1  0  0  0  0  0  0
  -35.1450   24.3730  -12.3790 O   0  0  0  0  0  0  0  0  0  0  0  0
  -35.0890   23.9550  -11.0120 C   0  0  0  0  0  1  0  0  0  0  0  0
  2 18  1  0  0  0  0
  2 22  1  0  0  0  0
  3 19  1  0  0  0  0
  3 10  1  0  0  0  0
  4  3  1  0  0  0  0
  5  4  1  0  0  0  0
  5  6  2  0  0  0  0
  6  8  1  0  0  0  0
  7  4  2  0  0  0  0
  7 13  1  0  0  0  0
  8 10  2  0  0  0  0
  8 15  1  0  0  0  0
  9  7  1  0  0  0  0
 11  5  1  0  0  0  0
 12  9  2  0  0  0  0
 12 11  1  0  0  0  0
 14  6  1  0  0  0  0
 14 21  2  0  0  0  0
 15 27  1  0  0  0  0
 16  9  1  0  0  0  0
 16 18  2  0  0  0  0
 17  1  1  0  0  0  0
 17 13  2  0  0  0  0
 18 17  1  0  0  0  0
 20 15  2  0  0  0  0
 20 25  1  0  0  0  0
 21 20  1  0  0  0  0
 22  1  1  0  0  0  0
 23 14  1  0  0  0  0
 24 23  1  0  0  0  0
 25 26  1  0  0  0  0
 27 28  1  0  0  0  0
M  END
>  <MODEL>
6

>  <REMARK>
 VINA RESULT:    -7.913      2.219      3.647
 INTER + INTRA:          -9.415
 INTER:                  -9.171
 INTRA:                  -0.244
 UNBOUND:                -0.114
  3 active torsions:
  status: ('A' for Active; 'I' for Inactive)
    1  A    between atoms: O3_3  and  C11_17 
    2  A    between atoms: O4_4  and  C12_18 
    3  A    between atoms: O5_5  and  C17_23 

>  <TORSDO>
F 3

$$$$
./Quelilutina.pdbqt
 OpenBabel10282519553D

 28 32  0  0  0  0  0  0  0  0999 V2000
  -29.2070   21.7790  -12.8330 O   0  0  0  0  0  0  0  0  0  0  0  0
  -29.6590   23.5320  -11.3200 O   0  0  0  0  0  0  0  0  0  0  0  0
  -33.3920   21.5340  -16.1430 N   0  0  0  0  0  0  0  0  0  0  0  0
  -33.6800   22.1280  -14.9080 C   0  0  0  0  0  0  0  0  0  0  0  0
  -35.0350   22.4110  -14.6090 C   0  0  0  0  0  0  0  0  0  0  0  0
  -36.0720   21.7470  -15.3380 C   0  0  0  0  0  0  0  0  0  0  0  0
  -32.6500   22.4640  -13.9570 C   0  0  0  0  0  0  0  0  0  0  0  0
  -35.7130   20.9860  -16.4720 C   0  0  0  0  0  0  0  0  0  0  0  0
  -32.9540   23.4330  -12.9740 C   0  0  0  0  0  0  0  0  0  0  0  0
  -34.3470   20.9880  -16.8890 C   0  0  0  0  0  3  0  0  0  0  0  0
  -35.2980   23.3920  -13.6090 C   0  0  0  0  0  3  0  0  0  0  0  0
  -34.2880   23.9280  -12.8660 C   0  0  0  0  0  3  0  0  0  0  0  0
  -31.3870   21.8020  -13.9350 C   0  0  0  0  0  2  0  0  0  0  0  0
  -37.4610   21.7540  -14.9870 C   0  0  0  0  0  0  0  0  0  0  0  0
  -36.6670   20.2890  -17.2330 C   0  0  0  0  0  0  0  0  0  0  0  0
  -31.9730   23.8930  -12.0440 C   0  0  0  0  0  3  0  0  0  0  0  0
  -30.4710   22.2430  -13.0300 C   0  0  0  0  0  0  0  0  0  0  0  0
  -30.7520   23.3000  -12.1010 C   0  0  0  0  0  0  0  0  0  0  0  0
  -32.0520   21.6390  -16.7410 C   0  0  0  0  0  1  0  0  0  0  0  0
  -38.0240   20.4070  -16.9220 C   0  0  0  0  0  0  0  0  0  0  0  0
  -38.4110   21.1260  -15.7670 C   0  0  0  0  0  3  0  0  0  0  0  0
  -28.6590   22.5770  -11.7520 C   0  0  0  0  0  2  0  0  0  0  0  0
  -37.7290   22.3980  -13.8360 O   0  0  0  0  0  0  0  0  0  0  0  0
  -39.0570   22.8810  -13.6330 C   0  0  0  0  0  1  0  0  0  0  0  0
  -39.0720   19.9000  -17.5830 O   0  0  0  0  0  0  0  0  0  0  0  0
  -40.0490   19.1570  -16.8530 C   0  0  0  0  0  1  0  0  0  0  0  0
  -36.2390   19.5890  -18.3310 O   0  0  0  0  0  0  0  0  0  0  0  0
  -36.4980   20.2820  -19.5550 C   0  0  0  0  0  1  0  0  0  0  0  0
  1 22  1  0  0  0  0
  3  4  1  0  0  0  0
  4  5  1  0  0  0  0
  4  7  2  0  0  0  0
  5 11  1  0  0  0  0
  6 14  1  0  0  0  0
  6  5  2  0  0  0  0
  7 13  1  0  0  0  0
  7  9  1  0  0  0  0
  8  6  1  0  0  0  0
  9 12  1  0  0  0  0
  9 16  2  0  0  0  0
 10  8  2  0  0  0  0
 10  3  1  0  0  0  0
 11 12  2  0  0  0  0
 13 17  1  0  0  0  0
 14 23  1  0  0  0  0
 15 20  2  0  0  0  0
 15  8  1  0  0  0  0
 17  1  1  0  0  0  0
 17 18  2  0  0  0  0
 18 16  1  0  0  0  0
 18  2  1  0  0  0  0
 19  3  1  0  0  0  0
 20 21  1  0  0  0  0
 21 14  2  0  0  0  0
 22  2  1  0  0  0  0
 23 24  1  0  0  0  0
 25 20  1  0  0  0  0
 25 26  1  0  0  0  0
 27 15  1  0  0  0  0
 28 27  1  0  0  0  0
M  END
>  <MODEL>
7

>  <REMARK>
 VINA RESULT:    -7.788      1.631      7.936
 INTER + INTRA:          -9.267
 INTER:                  -9.123
 INTRA:                  -0.145
 UNBOUND:                -0.114
  3 active torsions:
  status: ('A' for Active; 'I' for Inactive)
    1  A    between atoms: O3_3  and  C11_17 
    2  A    between atoms: O4_4  and  C12_18 
    3  A    between atoms: O5_5  and  C17_23 

>  <TORSDO>
F 3

$$$$
./Quelilutina.pdbqt
 OpenBabel10282519553D

 28 32  0  0  0  0  0  0  0  0999 V2000
  -35.3080   24.6330  -13.3040 O   0  0  0  0  0  0  0  0  0  0  0  0
  -33.1400   24.1610  -12.4980 O   0  0  0  0  0  0  0  0  0  0  0  0
  -36.8120   20.3740  -16.1540 N   0  0  0  0  0  0  0  0  0  0  0  0
  -35.4240   20.5130  -16.0330 C   0  0  0  0  0  0  0  0  0  0  0  0
  -34.6020   19.6580  -16.8070 C   0  0  0  0  0  0  0  0  0  0  0  0
  -35.1530   18.9920  -17.9470 C   0  0  0  0  0  0  0  0  0  0  0  0
  -34.8220   21.4770  -15.1460 C   0  0  0  0  0  0  0  0  0  0  0  0
  -36.5510   19.0460  -18.1450 C   0  0  0  0  0  0  0  0  0  0  0  0
  -33.4830   21.2600  -14.7510 C   0  0  0  0  0  0  0  0  0  0  0  0
  -37.3550   19.6840  -17.1520 C   0  0  0  0  0  3  0  0  0  0  0  0
  -33.2570   19.4680  -16.3750 C   0  0  0  0  0  2  0  0  0  0  0  0
  -32.7400   20.1960  -15.3440 C   0  0  0  0  0  3  0  0  0  0  0  0
  -35.5030   22.6590  -14.7310 C   0  0  0  0  0  3  0  0  0  0  0  0
  -34.3930   18.2990  -18.9450 C   0  0  0  0  0  0  0  0  0  0  0  0
  -37.1700   18.4340  -19.2490 C   0  0  0  0  0  0  0  0  0  0  0  0
  -32.8300   22.1120  -13.8090 C   0  0  0  0  0  3  0  0  0  0  0  0
  -34.8570   23.4690  -13.8470 C   0  0  0  0  0  0  0  0  0  0  0  0
  -33.5340   23.1880  -13.3680 C   0  0  0  0  0  0  0  0  0  0  0  0
  -37.7170   20.8410  -15.0930 C   0  0  0  0  0  1  0  0  0  0  0  0
  -36.4070   17.6780  -20.1420 C   0  0  0  0  0  0  0  0  0  0  0  0
  -35.0010   17.6410  -19.9940 C   0  0  0  0  0  3  0  0  0  0  0  0
  -34.2400   25.1020  -12.4390 C   0  0  0  0  0  2  0  0  0  0  0  0
  -33.0620   18.3770  -18.7670 O   0  0  0  0  0  0  0  0  0  0  0  0
  -32.2270   18.3320  -19.9240 C   0  0  0  0  0  1  0  0  0  0  0  0
  -36.8310   16.9520  -21.1850 O   0  0  0  0  0  0  0  0  0  0  0  0
  -35.8880   16.5870  -22.1930 C   0  0  0  0  0  1  0  0  0  0  0  0
  -38.5330   18.5160  -19.3580 O   0  0  0  0  0  0  0  0  0  0  0  0
  -38.9460   19.4760  -20.3350 C   0  0  0  0  0  1  0  0  0  0  0  0
  1 22  1  0  0  0  0
  2 22  1  0  0  0  0
  3  4  1  0  0  0  0
  3 19  1  0  0  0  0
  4  7  2  0  0  0  0
  5 11  1  0  0  0  0
  5  4  1  0  0  0  0
  6  5  2  0  0  0  0
  7  9  1  0  0  0  0
  7 13  1  0  0  0  0
  8  6  1  0  0  0  0
  8 10  2  0  0  0  0
  9 16  1  0  0  0  0
 10  3  1  0  0  0  0
 11 12  1  0  0  0  0
 12  9  2  0  0  0  0
 13 17  2  0  0  0  0
 14 23  1  0  0  0  0
 14  6  1  0  0  0  0
 15  8  1  0  0  0  0
 16 18  2  0  0  0  0
 17 18  1  0  0  0  0
 17  1  1  0  0  0  0
 18  2  1  0  0  0  0
 20 21  1  0  0  0  0
 20 15  2  0  0  0  0
 21 14  2  0  0  0  0
 24 23  1  0  0  0  0
 25 20  1  0  0  0  0
 26 25  1  0  0  0  0
 27 15  1  0  0  0  0
 28 27  1  0  0  0  0
M  END
>  <MODEL>
8

>  <REMARK>
 VINA RESULT:    -7.767      2.550      7.941
 INTER + INTRA:          -9.243
 INTER:                  -8.996
 INTRA:                  -0.247
 UNBOUND:                -0.114
  3 active torsions:
  status: ('A' for Active; 'I' for Inactive)
    1  A    between atoms: O3_3  and  C11_17 
    2  A    between atoms: O4_4  and  C12_18 
    3  A    between atoms: O5_5  and  C17_23 

>  <TORSDO>
F 3

$$$$
./Quelilutina.pdbqt
 OpenBabel10282519553D

 28 32  0  0  0  0  0  0  0  0999 V2000
  -35.5200   20.0270  -20.9080 O   0  0  0  0  0  0  0  0  0  0  0  0
  -37.6670   20.9860  -20.7030 O   0  0  0  0  0  0  0  0  0  0  0  0
  -33.3800   20.0740  -16.0150 N   0  0  0  0  0  0  0  0  0  0  0  0
  -34.3890   21.0270  -16.2010 C   0  0  0  0  0  0  0  0  0  0  0  0
  -34.5900   21.9870  -15.1790 C   0  0  0  0  0  0  0  0  0  0  0  0
  -33.5540   22.2260  -14.2210 C   0  0  0  0  0  0  0  0  0  0  0  0
  -35.2210   21.0460  -17.3780 C   0  0  0  0  0  0  0  0  0  0  0  0
  -32.4460   21.3510  -14.2000 C   0  0  0  0  0  0  0  0  0  0  0  0
  -36.4600   21.7190  -17.2960 C   0  0  0  0  0  0  0  0  0  0  0  0
  -32.4540   20.2200  -15.0720 C   0  0  0  0  0  3  0  0  0  0  0  0
  -35.8540   22.6450  -15.1330 C   0  0  0  0  0  3  0  0  0  0  0  0
  -36.7760   22.4660  -16.1210 C   0  0  0  0  0  3  0  0  0  0  0  0
  -34.7980   20.4840  -18.6190 C   0  0  0  0  0  2  0  0  0  0  0  0
  -33.5240   23.3180  -13.2950 C   0  0  0  0  0  0  0  0  0  0  0  0
  -31.3780   21.5250  -13.3030 C   0  0  0  0  0  0  0  0  0  0  0  0
  -37.3890   21.7200  -18.3800 C   0  0  0  0  0  3  0  0  0  0  0  0
  -35.6910   20.5100  -19.6470 C   0  0  0  0  0  0  0  0  0  0  0  0
  -36.9910   21.1050  -19.5250 C   0  0  0  0  0  0  0  0  0  0  0  0
  -33.4030   18.7940  -16.7390 C   0  0  0  0  0  1  0  0  0  0  0  0
  -31.4350   22.5380  -12.3430 C   0  0  0  0  0  0  0  0  0  0  0  0
  -32.5110   23.4560  -12.3680 C   0  0  0  0  0  3  0  0  0  0  0  0
  -36.7590   20.3130  -21.6090 C   0  0  0  0  0  2  0  0  0  0  0  0
  -34.5460   24.1820  -13.4370 O   0  0  0  0  0  0  0  0  0  0  0  0
  -35.1170   24.7450  -12.2560 C   0  0  0  0  0  1  0  0  0  0  0  0
  -30.5670   22.7940  -11.3560 O   0  0  0  0  0  0  0  0  0  0  0  0
  -30.9920   23.6120  -10.2650 C   0  0  0  0  0  1  0  0  0  0  0  0
  -30.3490   20.6200  -13.3330 O   0  0  0  0  0  0  0  0  0  0  0  0
  -29.1360   21.1890  -13.8330 C   0  0  0  0  0  1  0  0  0  0  0  0
  1 17  1  0  0  0  0
  2 18  1  0  0  0  0
  3 10  1  0  0  0  0
  4  3  1  0  0  0  0
  4  5  1  0  0  0  0
  5 11  1  0  0  0  0
  5  6  2  0  0  0  0
  6  8  1  0  0  0  0
  6 14  1  0  0  0  0
  7  9  1  0  0  0  0
  7  4  2  0  0  0  0
  8 15  1  0  0  0  0
  9 12  1  0  0  0  0
 10  8  2  0  0  0  0
 12 11  2  0  0  0  0
 13  7  1  0  0  0  0
 14 21  2  0  0  0  0
 15 20  2  0  0  0  0
 16  9  2  0  0  0  0
 17 18  2  0  0  0  0
 17 13  1  0  0  0  0
 18 16  1  0  0  0  0
 19  3  1  0  0  0  0
 20 25  1  0  0  0  0
 21 20  1  0  0  0  0
 22  1  1  0  0  0  0
 22  2  1  0  0  0  0
 23 14  1  0  0  0  0
 23 24  1  0  0  0  0
 25 26  1  0  0  0  0
 27 15  1  0  0  0  0
 28 27  1  0  0  0  0
M  END
>  <MODEL>
9

>  <REMARK>
 VINA RESULT:    -7.695      2.144      3.968
 INTER + INTRA:          -9.158
 INTER:                  -8.960
 INTRA:                  -0.199
 UNBOUND:                -0.114
  3 active torsions:
  status: ('A' for Active; 'I' for Inactive)
    1  A    between atoms: O3_3  and  C11_17 
    2  A    between atoms: O4_4  and  C12_18 
    3  A    between atoms: O5_5  and  C17_23 

>  <TORSDO>
F 3

$$$$
./Quelilutina.pdbqt
 OpenBabel10282519553D

 28 32  0  0  0  0  0  0  0  0999 V2000
  -39.0920   22.3300  -19.0230 O   0  0  0  0  0  0  0  0  0  0  0  0
  -40.7150   23.3200  -17.6250 O   0  0  0  0  0  0  0  0  0  0  0  0
  -35.0210   20.9460  -15.8550 N   0  0  0  0  0  0  0  0  0  0  0  0
  -35.8220   21.9700  -15.3340 C   0  0  0  0  0  0  0  0  0  0  0  0
  -35.3720   22.6330  -14.1660 C   0  0  0  0  0  0  0  0  0  0  0  0
  -33.9940   22.5470  -13.7920 C   0  0  0  0  0  0  0  0  0  0  0  0
  -37.0730   22.3510  -15.9390 C   0  0  0  0  0  0  0  0  0  0  0  0
  -33.1660   21.6370  -14.4850 C   0  0  0  0  0  0  0  0  0  0  0  0
  -38.0050   23.0470  -15.1370 C   0  0  0  0  0  0  0  0  0  0  0  0
  -33.7620   20.7820  -15.4610 C   0  0  0  0  0  3  0  0  0  0  0  0
  -36.3440   23.3260  -13.3870 C   0  0  0  0  0  3  0  0  0  0  0  0
  -37.6260   23.4700  -13.8270 C   0  0  0  0  0  3  0  0  0  0  0  0
  -37.3560   22.1170  -17.3170 C   0  0  0  0  0  2  0  0  0  0  0  0
  -33.3610   23.3490  -12.7880 C   0  0  0  0  0  0  0  0  0  0  0  0
  -31.7980   21.5030  -14.1920 C   0  0  0  0  0  0  0  0  0  0  0  0
  -39.3040   23.3900  -15.6200 C   0  0  0  0  0  3  0  0  0  0  0  0
  -38.5940   22.4670  -17.7640 C   0  0  0  0  0  0  0  0  0  0  0  0
  -39.5750   23.0820  -16.9160 C   0  0  0  0  0  0  0  0  0  0  0  0
  -35.5900   19.9090  -16.7300 C   0  0  0  0  0  1  0  0  0  0  0  0
  -31.2410   22.2260  -13.1330 C   0  0  0  0  0  0  0  0  0  0  0  0
  -32.0330   23.1770  -12.4500 C   0  0  0  0  0  3  0  0  0  0  0  0
  -40.4420   22.8620  -18.9710 C   0  0  0  0  0  2  0  0  0  0  0  0
  -34.1680   24.2770  -12.2420 O   0  0  0  0  0  0  0  0  0  0  0  0
  -33.5630   25.4050  -11.6100 C   0  0  0  0  0  1  0  0  0  0  0  0
  -29.9940   22.1590  -12.6510 O   0  0  0  0  0  0  0  0  0  0  0  0
  -29.4280   23.3240  -12.0500 C   0  0  0  0  0  1  0  0  0  0  0  0
  -31.0680   20.5820  -14.8960 O   0  0  0  0  0  0  0  0  0  0  0  0
  -30.2330   21.1890  -15.8870 C   0  0  0  0  0  1  0  0  0  0  0  0
  1 22  1  0  0  0  0
  1 17  1  0  0  0  0
  2 18  1  0  0  0  0
  3 10  1  0  0  0  0
  3  4  1  0  0  0  0
  4  5  1  0  0  0  0
  5  6  2  0  0  0  0
  5 11  1  0  0  0  0
  6 14  1  0  0  0  0
  7  4  2  0  0  0  0
  7  9  1  0  0  0  0
  8 15  1  0  0  0  0
  8  6  1  0  0  0  0
  9 12  1  0  0  0  0
 10  8  2  0  0  0  0
 12 11  2  0  0  0  0
 13  7  1  0  0  0  0
 14 21  2  0  0  0  0
 14 23  1  0  0  0  0
 15 20  2  0  0  0  0
 16  9  2  0  0  0  0
 17 13  1  0  0  0  0
 17 18  2  0  0  0  0
 18 16  1  0  0  0  0
 19  3  1  0  0  0  0
 20 25  1  0  0  0  0
 20 21  1  0  0  0  0
 22  2  1  0  0  0  0
 23 24  1  0  0  0  0
 25 26  1  0  0  0  0
 27 15  1  0  0  0  0
 28 27  1  0  0  0  0
M  END
>  <MODEL>
10

>  <REMARK>
 VINA RESULT:    -7.603      2.056      4.051
 INTER + INTRA:          -9.050
 INTER:                  -8.807
 INTRA:                  -0.243
 UNBOUND:                -0.114
  3 active torsions:
  status: ('A' for Active; 'I' for Inactive)
    1  A    between atoms: O3_3  and  C11_17 
    2  A    between atoms: O4_4  and  C12_18 
    3  A    between atoms: O5_5  and  C17_23 

>  <TORSDO>
F 3

$$$$
./Quelilutina.pdbqt
 OpenBabel10282519553D

 28 32  0  0  0  0  0  0  0  0999 V2000
  -28.7870   20.5970  -13.4280 O   0  0  0  0  0  0  0  0  0  0  0  0
  -28.2210   22.4580  -12.0910 O   0  0  0  0  0  0  0  0  0  0  0  0
  -33.6370   21.6020  -15.4260 N   0  0  0  0  0  0  0  0  0  0  0  0
  -33.3530   22.3040  -14.2480 C   0  0  0  0  0  0  0  0  0  0  0  0
  -34.4080   23.0220  -13.6340 C   0  0  0  0  0  0  0  0  0  0  0  0
  -35.7640   22.7050  -13.9640 C   0  0  0  0  0  0  0  0  0  0  0  0
  -32.0370   22.3220  -13.6620 C   0  0  0  0  0  0  0  0  0  0  0  0
  -36.0030   21.8260  -15.0430 C   0  0  0  0  0  0  0  0  0  0  0  0
  -31.7290   23.3730  -12.7690 C   0  0  0  0  0  0  0  0  0  0  0  0
  -34.8880   21.3680  -15.8090 C   0  0  0  0  0  3  0  0  0  0  0  0
  -34.0550   24.0730  -12.7380 C   0  0  0  0  0  3  0  0  0  0  0  0
  -32.7580   24.2790  -12.3720 C   0  0  0  0  0  3  0  0  0  0  0  0
  -31.0840   21.2870  -13.8950 C   0  0  0  0  0  2  0  0  0  0  0  0
  -36.9170   23.1760  -13.2560 C   0  0  0  0  0  0  0  0  0  0  0  0
  -37.3040   21.4490  -15.4210 C   0  0  0  0  0  0  0  0  0  0  0  0
  -30.4260   23.5250  -12.2060 C   0  0  0  0  0  3  0  0  0  0  0  0
  -29.8520   21.4390  -13.3350 C   0  0  0  0  0  0  0  0  0  0  0  0
  -29.5130   22.5650  -12.5120 C   0  0  0  0  0  0  0  0  0  0  0  0
  -32.5690   21.2430  -16.3710 C   0  0  0  0  0  1  0  0  0  0  0  0
  -38.4060   22.0130  -14.7740 C   0  0  0  0  0  0  0  0  0  0  0  0
  -38.1980   22.8620  -13.6620 C   0  0  0  0  0  3  0  0  0  0  0  0
  -27.7290   21.2140  -12.6480 C   0  0  0  0  0  2  0  0  0  0  0  0
  -36.6250   23.9150  -12.1700 O   0  0  0  0  0  0  0  0  0  0  0  0
  -37.2470   23.5650  -10.9330 C   0  0  0  0  0  1  0  0  0  0  0  0
  -39.7050   21.8500  -15.0560 O   0  0  0  0  0  0  0  0  0  0  0  0
  -40.6740   22.3550  -14.1380 C   0  0  0  0  0  1  0  0  0  0  0  0
  -37.4520   20.6070  -16.4920 O   0  0  0  0  0  0  0  0  0  0  0  0
  -37.6810   21.3140  -17.7140 C   0  0  0  0  0  1  0  0  0  0  0  0
  1 17  1  0  0  0  0
  1 22  1  0  0  0  0
  3  4  1  0  0  0  0
  4  7  2  0  0  0  0
  4  5  1  0  0  0  0
  5 11  1  0  0  0  0
  6  5  2  0  0  0  0
  6 14  1  0  0  0  0
  7  9  1  0  0  0  0
  8  6  1  0  0  0  0
  9 12  1  0  0  0  0
  9 16  2  0  0  0  0
 10  3  1  0  0  0  0
 10  8  2  0  0  0  0
 11 12  2  0  0  0  0
 13  7  1  0  0  0  0
 13 17  1  0  0  0  0
 14 23  1  0  0  0  0
 15  8  1  0  0  0  0
 15 20  2  0  0  0  0
 17 18  2  0  0  0  0
 18 16  1  0  0  0  0
 18  2  1  0  0  0  0
 19  3  1  0  0  0  0
 20 21  1  0  0  0  0
 21 14  2  0  0  0  0
 22  2  1  0  0  0  0
 23 24  1  0  0  0  0
 25 20  1  0  0  0  0
 25 26  1  0  0  0  0
 27 15  1  0  0  0  0
 28 27  1  0  0  0  0
M  END
>  <MODEL>
11

>  <REMARK>
 VINA RESULT:    -7.556      1.953      7.509
 INTER + INTRA:          -8.995
 INTER:                  -8.868
 INTRA:                  -0.127
 UNBOUND:                -0.114
  3 active torsions:
  status: ('A' for Active; 'I' for Inactive)
    1  A    between atoms: O3_3  and  C11_17 
    2  A    between atoms: O4_4  and  C12_18 
    3  A    between atoms: O5_5  and  C17_23 

>  <TORSDO>
F 3

$$$$
./Quelilutina.pdbqt
 OpenBabel10282519553D

 28 32  0  0  0  0  0  0  0  0999 V2000
  -42.9340   23.0550   -6.1510 O   0  0  0  0  0  0  0  0  0  0  0  0
  -43.6100   25.1830   -6.9130 O   0  0  0  0  0  0  0  0  0  0  0  0
  -43.8270   22.9910   -0.8850 N   0  0  0  0  0  0  0  0  0  0  0  0
  -43.6750   24.2780   -1.4180 C   0  0  0  0  0  0  0  0  0  0  0  0
  -43.5840   25.3630   -0.5140 C   0  0  0  0  0  0  0  0  0  0  0  0
  -43.2450   25.1160    0.8540 C   0  0  0  0  0  0  0  0  0  0  0  0
  -43.6230   24.5200   -2.8380 C   0  0  0  0  0  0  0  0  0  0  0  0
  -43.2130   23.7780    1.3060 C   0  0  0  0  0  0  0  0  0  0  0  0
  -43.9150   25.8250   -3.2930 C   0  0  0  0  0  0  0  0  0  0  0  0
  -43.6080   22.7450    0.4030 C   0  0  0  0  0  3  0  0  0  0  0  0
  -43.8840   26.6640   -1.0140 C   0  0  0  0  0  3  0  0  0  0  0  0
  -44.1050   26.8730   -2.3430 C   0  0  0  0  0  3  0  0  0  0  0  0
  -43.2150   23.5180   -3.7680 C   0  0  0  0  0  2  0  0  0  0  0  0
  -42.8870   26.1220    1.8100 C   0  0  0  0  0  0  0  0  0  0  0  0
  -42.8720   23.4480    2.6290 C   0  0  0  0  0  0  0  0  0  0  0  0
  -43.9720   26.1410   -4.6850 C   0  0  0  0  0  3  0  0  0  0  0  0
  -43.2590   23.8430   -5.0890 C   0  0  0  0  0  0  0  0  0  0  0  0
  -43.6580   25.1420   -5.5520 C   0  0  0  0  0  0  0  0  0  0  0  0
  -44.3970   21.8990   -1.6890 C   0  0  0  0  0  1  0  0  0  0  0  0
  -42.6340   24.4630    3.5590 C   0  0  0  0  0  0  0  0  0  0  0  0
  -42.6160   25.8090    3.1260 C   0  0  0  0  0  3  0  0  0  0  0  0
  -43.1460   23.8760   -7.3290 C   0  0  0  0  0  2  0  0  0  0  0  0
  -42.8230   27.3640    1.2960 O   0  0  0  0  0  0  0  0  0  0  0  0
  -42.6890   28.4590    2.2020 C   0  0  0  0  0  1  0  0  0  0  0  0
  -42.3930   24.3440    4.8710 O   0  0  0  0  0  0  0  0  0  0  0  0
  -41.1280   24.7720    5.3760 C   0  0  0  0  0  1  0  0  0  0  0  0
  -42.8840   22.1270    2.9940 O   0  0  0  0  0  0  0  0  0  0  0  0
  -44.0620   21.7720    3.7220 C   0  0  0  0  0  1  0  0  0  0  0  0
  1 17  1  0  0  0  0
  2 18  1  0  0  0  0
  3 10  1  0  0  0  0
  4  3  1  0  0  0  0
  4  5  1  0  0  0  0
  5  6  2  0  0  0  0
  6  8  1  0  0  0  0
  6 14  1  0  0  0  0
  7  4  2  0  0  0  0
  8 15  1  0  0  0  0
  9  7  1  0  0  0  0
  9 12  1  0  0  0  0
 10  8  2  0  0  0  0
 11  5  1  0  0  0  0
 12 11  2  0  0  0  0
 13  7  1  0  0  0  0
 14 21  2  0  0  0  0
 15 27  1  0  0  0  0
 15 20  2  0  0  0  0
 16  9  2  0  0  0  0
 17 13  1  0  0  0  0
 18 17  2  0  0  0  0
 18 16  1  0  0  0  0
 19  3  1  0  0  0  0
 20 25  1  0  0  0  0
 21 20  1  0  0  0  0
 22  2  1  0  0  0  0
 22  1  1  0  0  0  0
 23 14  1  0  0  0  0
 23 24  1  0  0  0  0
 25 26  1  0  0  0  0
 27 28  1  0  0  0  0
M  END
>  <MODEL>
12

>  <REMARK>
 VINA RESULT:    -7.525     15.389     17.041
 INTER + INTRA:          -8.959
 INTER:                  -8.811
 INTRA:                  -0.148
 UNBOUND:                -0.114
  3 active torsions:
  status: ('A' for Active; 'I' for Inactive)
    1  A    between atoms: O3_3  and  C11_17 
    2  A    between atoms: O4_4  and  C12_18 
    3  A    between atoms: O5_5  and  C17_23 

>  <TORSDO>
F 3

$$$$
./Quelilutina.pdbqt
 OpenBabel10282519553D

 28 32  0  0  0  0  0  0  0  0999 V2000
  -39.8450   32.8970    1.0680 O   0  0  0  0  0  0  0  0  0  0  0  0
  -39.3110   33.5910    3.2600 O   0  0  0  0  0  0  0  0  0  0  0  0
  -42.8440   28.5060    1.5710 N   0  0  0  0  0  0  0  0  0  0  0  0
  -42.0250   28.7630    2.6780 C   0  0  0  0  0  0  0  0  0  0  0  0
  -41.9400   27.7700    3.6840 C   0  0  0  0  0  0  0  0  0  0  0  0
  -42.3290   26.4260    3.3840 C   0  0  0  0  0  0  0  0  0  0  0  0
  -41.2920   29.9950    2.8220 C   0  0  0  0  0  0  0  0  0  0  0  0
  -42.9790   26.1750    2.1550 C   0  0  0  0  0  0  0  0  0  0  0  0
  -40.8680   30.3600    4.1200 C   0  0  0  0  0  0  0  0  0  0  0  0
  -43.2980   27.2840    1.3140 C   0  0  0  0  0  3  0  0  0  0  0  0
  -41.5060   28.1790    4.9790 C   0  0  0  0  0  3  0  0  0  0  0  0
  -41.0490   29.4440    5.2000 C   0  0  0  0  0  3  0  0  0  0  0  0
  -40.9220   30.7980    1.7030 C   0  0  0  0  0  2  0  0  0  0  0  0
  -42.0740   25.2880    4.2160 C   0  0  0  0  0  0  0  0  0  0  0  0
  -43.3770   24.8810    1.7750 C   0  0  0  0  0  0  0  0  0  0  0  0
  -40.2100   31.6010    4.3750 C   0  0  0  0  0  3  0  0  0  0  0  0
  -40.2800   31.9700    1.9640 C   0  0  0  0  0  0  0  0  0  0  0  0
  -39.9440   32.3840    3.2960 C   0  0  0  0  0  0  0  0  0  0  0  0
  -43.3720   29.6040    0.7470 C   0  0  0  0  0  1  0  0  0  0  0  0
  -43.2070   23.8140    2.6610 C   0  0  0  0  0  0  0  0  0  0  0  0
  -42.5210   24.0260    3.8790 C   0  0  0  0  0  3  0  0  0  0  0  0
  -39.2230   33.9450    1.8580 C   0  0  0  0  0  2  0  0  0  0  0  0
  -41.3520   25.5690    5.3160 O   0  0  0  0  0  0  0  0  0  0  0  0
  -40.1860   24.7860    5.5720 C   0  0  0  0  0  1  0  0  0  0  0  0
  -43.6070   22.5440    2.5140 O   0  0  0  0  0  0  0  0  0  0  0  0
  -43.6410   21.7000    3.6650 C   0  0  0  0  0  1  0  0  0  0  0  0
  -44.0210   24.7240    0.5750 O   0  0  0  0  0  0  0  0  0  0  0  0
  -43.1820   24.1300   -0.4190 C   0  0  0  0  0  1  0  0  0  0  0  0
  1 22  1  0  0  0  0
  1 17  1  0  0  0  0
  2 18  1  0  0  0  0
  3  4  1  0  0  0  0
  4  7  2  0  0  0  0
  4  5  1  0  0  0  0
  5 11  1  0  0  0  0
  6  5  2  0  0  0  0
  6 14  1  0  0  0  0
  7  9  1  0  0  0  0
  8  6  1  0  0  0  0
  9 16  2  0  0  0  0
  9 12  1  0  0  0  0
 10  3  1  0  0  0  0
 10  8  2  0  0  0  0
 11 12  2  0  0  0  0
 13 17  1  0  0  0  0
 13  7  1  0  0  0  0
 14 23  1  0  0  0  0
 15  8  1  0  0  0  0
 15 20  2  0  0  0  0
 17 18  2  0  0  0  0
 18 16  1  0  0  0  0
 19  3  1  0  0  0  0
 20 21  1  0  0  0  0
 21 14  2  0  0  0  0
 22  2  1  0  0  0  0
 23 24  1  0  0  0  0
 25 20  1  0  0  0  0
 25 26  1  0  0  0  0
 27 15  1  0  0  0  0
 28 27  1  0  0  0  0
M  END
>  <MODEL>
13

>  <REMARK>
 VINA RESULT:    -7.520     17.394     20.752
 INTER + INTRA:          -8.953
 INTER:                  -8.715
 INTRA:                  -0.238
 UNBOUND:                -0.114
  3 active torsions:
  status: ('A' for Active; 'I' for Inactive)
    1  A    between atoms: O3_3  and  C11_17 
    2  A    between atoms: O4_4  and  C12_18 
    3  A    between atoms: O5_5  and  C17_23 

>  <TORSDO>
F 3

$$$$
./Quelilutina.pdbqt
 OpenBabel10282519553D

 28 32  0  0  0  0  0  0  0  0999 V2000
  -39.4990   33.4520    1.5240 O   0  0  0  0  0  0  0  0  0  0  0  0
  -38.5760   32.6790    3.5530 O   0  0  0  0  0  0  0  0  0  0  0  0
  -43.6680   30.2850    0.4680 N   0  0  0  0  0  0  0  0  0  0  0  0
  -42.7130   29.7020    1.3100 C   0  0  0  0  0  0  0  0  0  0  0  0
  -42.8530   28.3270    1.6190 C   0  0  0  0  0  0  0  0  0  0  0  0
  -43.6710   27.4970    0.7890 C   0  0  0  0  0  0  0  0  0  0  0  0
  -41.6190   30.4560    1.8680 C   0  0  0  0  0  0  0  0  0  0  0  0
  -44.4770   28.1160   -0.1930 C   0  0  0  0  0  0  0  0  0  0  0  0
  -40.9850   29.9380    3.0200 C   0  0  0  0  0  0  0  0  0  0  0  0
  -44.5060   29.5430   -0.2490 C   0  0  0  0  0  3  0  0  0  0  0  0
  -42.1960   27.8450    2.7880 C   0  0  0  0  0  3  0  0  0  0  0  0
  -41.3450   28.6410    3.4960 C   0  0  0  0  0  3  0  0  0  0  0  0
  -41.1200   31.6430    1.2560 C   0  0  0  0  0  2  0  0  0  0  0  0
  -43.7120   26.0660    0.8390 C   0  0  0  0  0  0  0  0  0  0  0  0
  -45.2950   27.3720   -1.0600 C   0  0  0  0  0  0  0  0  0  0  0  0
  -39.9500   30.6530    3.6940 C   0  0  0  0  0  3  0  0  0  0  0  0
  -40.1200   32.3020    1.9040 C   0  0  0  0  0  0  0  0  0  0  0  0
  -39.5500   31.8240    3.1320 C   0  0  0  0  0  0  0  0  0  0  0  0
  -43.8970   31.7390    0.4720 C   0  0  0  0  0  1  0  0  0  0  0  0
  -45.3890   25.9870   -0.9090 C   0  0  0  0  0  0  0  0  0  0  0  0
  -44.5630   25.3340    0.0350 C   0  0  0  0  0  3  0  0  0  0  0  0
  -38.5100   33.7230    2.5510 C   0  0  0  0  0  2  0  0  0  0  0  0
  -42.8420   25.5260    1.7120 O   0  0  0  0  0  0  0  0  0  0  0  0
  -42.0920   24.3860    1.2930 C   0  0  0  0  0  1  0  0  0  0  0  0
  -46.1800   25.1330   -1.5720 O   0  0  0  0  0  0  0  0  0  0  0  0
  -45.6010   24.3080   -2.5840 C   0  0  0  0  0  1  0  0  0  0  0  0
  -46.0620   28.0500   -1.9720 O   0  0  0  0  0  0  0  0  0  0  0  0
  -45.5050   28.0120   -3.2890 C   0  0  0  0  0  1  0  0  0  0  0  0
  1 17  1  0  0  0  0
  1 22  1  0  0  0  0
  3 19  1  0  0  0  0
  3  4  1  0  0  0  0
  4  5  1  0  0  0  0
  4  7  2  0  0  0  0
  5 11  1  0  0  0  0
  6 14  1  0  0  0  0
  6  5  2  0  0  0  0
  7  9  1  0  0  0  0
  8  6  1  0  0  0  0
  9 12  1  0  0  0  0
  9 16  2  0  0  0  0
 10  8  2  0  0  0  0
 10  3  1  0  0  0  0
 11 12  2  0  0  0  0
 13  7  1  0  0  0  0
 13 17  1  0  0  0  0
 14 23  1  0  0  0  0
 15 20  2  0  0  0  0
 15  8  1  0  0  0  0
 17 18  2  0  0  0  0
 18  2  1  0  0  0  0
 18 16  1  0  0  0  0
 20 21  1  0  0  0  0
 21 14  2  0  0  0  0
 22  2  1  0  0  0  0
 24 23  1  0  0  0  0
 25 20  1  0  0  0  0
 26 25  1  0  0  0  0
 27 15  1  0  0  0  0
 28 27  1  0  0  0  0
M  END
>  <MODEL>
14

>  <REMARK>
 VINA RESULT:    -7.423     17.147     20.037
 INTER + INTRA:          -8.838
 INTER:                  -8.546
 INTRA:                  -0.292
 UNBOUND:                -0.114
  3 active torsions:
  status: ('A' for Active; 'I' for Inactive)
    1  A    between atoms: O3_3  and  C11_17 
    2  A    between atoms: O4_4  and  C12_18 
    3  A    between atoms: O5_5  and  C17_23 

>  <TORSDO>
F 3

$$$$
./Quelilutina.pdbqt
 OpenBabel10282519553D

 28 32  0  0  0  0  0  0  0  0999 V2000
  -42.4140   23.0250   -5.7760 O   0  0  0  0  0  0  0  0  0  0  0  0
  -43.6470   24.6940   -6.9010 O   0  0  0  0  0  0  0  0  0  0  0  0
  -43.1590   23.8680   -0.5550 N   0  0  0  0  0  0  0  0  0  0  0  0
  -43.3660   25.0050   -1.3470 C   0  0  0  0  0  0  0  0  0  0  0  0
  -43.5510   26.2450   -0.6900 C   0  0  0  0  0  0  0  0  0  0  0  0
  -43.1330   26.3940    0.6700 C   0  0  0  0  0  0  0  0  0  0  0  0
  -43.4070   24.9410   -2.7860 C   0  0  0  0  0  0  0  0  0  0  0  0
  -42.7370   25.2380    1.3790 C   0  0  0  0  0  0  0  0  0  0  0  0
  -44.0450   25.9980   -3.4730 C   0  0  0  0  0  0  0  0  0  0  0  0
  -42.8590   23.9690    0.7360 C   0  0  0  0  0  3  0  0  0  0  0  0
  -44.1970   27.2860   -1.4200 C   0  0  0  0  0  2  0  0  0  0  0  0
  -44.4900   27.1410   -2.7430 C   0  0  0  0  0  3  0  0  0  0  0  0
  -42.7640   23.9010   -3.5220 C   0  0  0  0  0  3  0  0  0  0  0  0
  -43.0390   27.6380    1.3730 C   0  0  0  0  0  0  0  0  0  0  0  0
  -42.2960   25.2990    2.7130 C   0  0  0  0  0  0  0  0  0  0  0  0
  -44.2100   25.9820   -4.8910 C   0  0  0  0  0  3  0  0  0  0  0  0
  -42.9180   23.9120   -4.8750 C   0  0  0  0  0  0  0  0  0  0  0  0
  -43.6570   24.9350   -5.5590 C   0  0  0  0  0  0  0  0  0  0  0  0
  -43.4330   22.5200   -1.0760 C   0  0  0  0  0  1  0  0  0  0  0  0
  -42.3200   26.5160    3.3980 C   0  0  0  0  0  0  0  0  0  0  0  0
  -42.6700   27.6970    2.7010 C   0  0  0  0  0  3  0  0  0  0  0  0
  -42.8590   23.4910   -7.0770 C   0  0  0  0  0  2  0  0  0  0  0  0
  -43.3180   28.7150    0.6150 O   0  0  0  0  0  0  0  0  0  0  0  0
  -42.9300   29.9980    1.1040 C   0  0  0  0  0  1  0  0  0  0  0  0
  -42.0320   26.7480    4.6840 O   0  0  0  0  0  0  0  0  0  0  0  0
  -42.6340   27.8710    5.3300 C   0  0  0  0  0  1  0  0  0  0  0  0
  -41.9480   24.1300    3.3370 O   0  0  0  0  0  0  0  0  0  0  0  0
  -42.9340   23.7010    4.2810 C   0  0  0  0  0  1  0  0  0  0  0  0
  1 17  1  0  0  0  0
  2 18  1  0  0  0  0
  3 10  1  0  0  0  0
  4  5  1  0  0  0  0
  4  3  1  0  0  0  0
  5  6  2  0  0  0  0
  6 14  1  0  0  0  0
  6  8  1  0  0  0  0
  7  4  2  0  0  0  0
  8 15  1  0  0  0  0
  9  7  1  0  0  0  0
  9 12  2  0  0  0  0
 10  8  2  0  0  0  0
 11  5  1  0  0  0  0
 12 11  1  0  0  0  0
 13  7  1  0  0  0  0
 14 21  2  0  0  0  0
 15 27  1  0  0  0  0
 15 20  2  0  0  0  0
 16  9  1  0  0  0  0
 17 13  2  0  0  0  0
 18 16  2  0  0  0  0
 18 17  1  0  0  0  0
 19  3  1  0  0  0  0
 20 25  1  0  0  0  0
 21 20  1  0  0  0  0
 22  2  1  0  0  0  0
 22  1  1  0  0  0  0
 23 24  1  0  0  0  0
 23 14  1  0  0  0  0
 25 26  1  0  0  0  0
 27 28  1  0  0  0  0
M  END
>  <MODEL>
15

>  <REMARK>
 VINA RESULT:    -7.343     15.270     17.037
 INTER + INTRA:          -8.744
 INTER:                  -8.605
 INTRA:                  -0.139
 UNBOUND:                -0.114
  3 active torsions:
  status: ('A' for Active; 'I' for Inactive)
    1  A    between atoms: O3_3  and  C11_17 
    2  A    between atoms: O4_4  and  C12_18 
    3  A    between atoms: O5_5  and  C17_23 

>  <TORSDO>
F 3

$$$$
./Quelilutina.pdbqt
 OpenBabel10282519553D

 28 32  0  0  0  0  0  0  0  0999 V2000
  -19.1500    1.0330    9.1550 O   0  0  0  0  0  0  0  0  0  0  0  0
  -17.4940   -0.3010   10.1790 O   0  0  0  0  0  0  0  0  0  0  0  0
  -22.7820    2.0800   12.9280 N   0  0  0  0  0  0  0  0  0  0  0  0
  -22.0260    0.9270   13.1740 C   0  0  0  0  0  0  0  0  0  0  0  0
  -22.4200    0.0940   14.2490 C   0  0  0  0  0  0  0  0  0  0  0  0
  -23.7460    0.2000   14.7760 C   0  0  0  0  0  0  0  0  0  0  0  0
  -20.8710    0.5820   12.3840 C   0  0  0  0  0  0  0  0  0  0  0  0
  -24.5540    1.2750   14.3440 C   0  0  0  0  0  0  0  0  0  0  0  0
  -19.9310   -0.3090   12.9480 C   0  0  0  0  0  0  0  0  0  0  0  0
  -23.9810    2.2520   13.4750 C   0  0  0  0  0  3  0  0  0  0  0  0
  -21.4420   -0.7930   14.7880 C   0  0  0  0  0  3  0  0  0  0  0  0
  -20.2220   -0.9380   14.1960 C   0  0  0  0  0  3  0  0  0  0  0  0
  -20.6970    1.0440   11.0460 C   0  0  0  0  0  2  0  0  0  0  0  0
  -24.3490   -0.7280   15.6850 C   0  0  0  0  0  0  0  0  0  0  0  0
  -25.8740    1.4430   14.7990 C   0  0  0  0  0  0  0  0  0  0  0  0
  -18.7150   -0.6430   12.2780 C   0  0  0  0  0  3  0  0  0  0  0  0
  -19.5400    0.7010   10.4160 C   0  0  0  0  0  0  0  0  0  0  0  0
  -18.5400   -0.1220   11.0350 C   0  0  0  0  0  0  0  0  0  0  0  0
  -22.2110    3.2190   12.1930 C   0  0  0  0  0  1  0  0  0  0  0  0
  -26.3900    0.5770   15.7670 C   0  0  0  0  0  0  0  0  0  0  0  0
  -25.6200   -0.5330   16.1860 C   0  0  0  0  0  3  0  0  0  0  0  0
  -17.8500    0.4120    8.9700 C   0  0  0  0  0  2  0  0  0  0  0  0
  -23.5750   -1.7910   15.9720 O   0  0  0  0  0  0  0  0  0  0  0  0
  -24.1800   -3.0840   15.9560 C   0  0  0  0  0  1  0  0  0  0  0  0
  -27.5770    0.6380   16.3830 O   0  0  0  0  0  0  0  0  0  0  0  0
  -28.5470   -0.3710   16.1000 C   0  0  0  0  0  1  0  0  0  0  0  0
  -26.5860    2.5230   14.3470 O   0  0  0  0  0  0  0  0  0  0  0  0
  -27.6210    2.1510   13.4340 C   0  0  0  0  0  1  0  0  0  0  0  0
  1 17  1  0  0  0  0
  2 18  1  0  0  0  0
  3  4  1  0  0  0  0
  3 10  1  0  0  0  0
  4  5  1  0  0  0  0
  5  6  2  0  0  0  0
  5 11  1  0  0  0  0
  6 14  1  0  0  0  0
  7  9  1  0  0  0  0
  7  4  2  0  0  0  0
  8  6  1  0  0  0  0
  8 15  1  0  0  0  0
  9 12  1  0  0  0  0
 10  8  2  0  0  0  0
 12 11  2  0  0  0  0
 13  7  1  0  0  0  0
 14 23  1  0  0  0  0
 14 21  2  0  0  0  0
 15 20  2  0  0  0  0
 16  9  2  0  0  0  0
 17 18  2  0  0  0  0
 17 13  1  0  0  0  0
 18 16  1  0  0  0  0
 19  3  1  0  0  0  0
 20 21  1  0  0  0  0
 20 25  1  0  0  0  0
 22  1  1  0  0  0  0
 22  2  1  0  0  0  0
 24 23  1  0  0  0  0
 26 25  1  0  0  0  0
 27 15  1  0  0  0  0
 28 27  1  0  0  0  0
M  END
>  <MODEL>
16

>  <REMARK>
 VINA RESULT:    -7.312     34.815     37.433
 INTER + INTRA:          -8.708
 INTER:                  -8.435
 INTRA:                  -0.273
 UNBOUND:                -0.114
  3 active torsions:
  status: ('A' for Active; 'I' for Inactive)
    1  A    between atoms: O3_3  and  C11_17 
    2  A    between atoms: O4_4  and  C12_18 
    3  A    between atoms: O5_5  and  C17_23 

>  <TORSDO>
F 3

$$$$
./Quelilutina.pdbqt
 OpenBabel10282519553D

 28 32  0  0  0  0  0  0  0  0999 V2000
  -31.7550   20.2520  -15.2070 O   0  0  0  0  0  0  0  0  0  0  0  0
  -31.4960   22.1800  -13.8710 O   0  0  0  0  0  0  0  0  0  0  0  0
  -36.7890   20.3220  -16.9890 N   0  0  0  0  0  0  0  0  0  0  0  0
  -36.5940   21.0590  -15.8150 C   0  0  0  0  0  0  0  0  0  0  0  0
  -37.7390   21.5610  -15.1490 C   0  0  0  0  0  0  0  0  0  0  0  0
  -39.0220   20.9920  -15.4260 C   0  0  0  0  0  0  0  0  0  0  0  0
  -35.2810   21.3260  -15.2840 C   0  0  0  0  0  0  0  0  0  0  0  0
  -39.1360   20.0890  -16.5060 C   0  0  0  0  0  0  0  0  0  0  0  0
  -35.1410   22.4120  -14.3910 C   0  0  0  0  0  0  0  0  0  0  0  0
  -37.9880   19.8560  -17.3240 C   0  0  0  0  0  3  0  0  0  0  0  0
  -37.5540   22.6550  -14.2540 C   0  0  0  0  0  3  0  0  0  0  0  0
  -36.3050   23.1030  -13.9390 C   0  0  0  0  0  3  0  0  0  0  0  0
  -34.1590   20.4920  -15.5700 C   0  0  0  0  0  2  0  0  0  0  0  0
  -40.2120   21.2310  -14.6650 C   0  0  0  0  0  0  0  0  0  0  0  0
  -40.3560   19.4730  -16.8350 C   0  0  0  0  0  0  0  0  0  0  0  0
  -33.8670   22.8060  -13.8810 C   0  0  0  0  0  3  0  0  0  0  0  0
  -32.9560   20.8750  -15.0600 C   0  0  0  0  0  0  0  0  0  0  0  0
  -32.8020   22.0400  -14.2360 C   0  0  0  0  0  0  0  0  0  0  0  0
  -35.7140   20.1790  -17.9830 C   0  0  0  0  0  1  0  0  0  0  0  0
  -41.5170   19.8130  -16.1350 C   0  0  0  0  0  0  0  0  0  0  0  0
  -41.4260   20.6810  -15.0220 C   0  0  0  0  0  3  0  0  0  0  0  0
  -30.8020   21.0550  -14.4640 C   0  0  0  0  0  2  0  0  0  0  0  0
  -40.0190   22.0070  -13.5830 O   0  0  0  0  0  0  0  0  0  0  0  0
  -41.0620   22.9090  -13.2110 C   0  0  0  0  0  1  0  0  0  0  0  0
  -42.7710   19.4070  -16.3660 O   0  0  0  0  0  0  0  0  0  0  0  0
  -43.4910   18.7710  -15.3080 C   0  0  0  0  0  1  0  0  0  0  0  0
  -40.3880   18.6230  -17.9100 O   0  0  0  0  0  0  0  0  0  0  0  0
  -40.9320   19.2420  -19.0780 C   0  0  0  0  0  1  0  0  0  0  0  0
  1 17  1  0  0  0  0
  1 22  1  0  0  0  0
  3  4  1  0  0  0  0
  4  7  2  0  0  0  0
  4  5  1  0  0  0  0
  5 11  1  0  0  0  0
  6  5  2  0  0  0  0
  6 14  1  0  0  0  0
  7  9  1  0  0  0  0
  8  6  1  0  0  0  0
  9 12  1  0  0  0  0
  9 16  2  0  0  0  0
 10  3  1  0  0  0  0
 10  8  2  0  0  0  0
 11 12  2  0  0  0  0
 13  7  1  0  0  0  0
 13 17  1  0  0  0  0
 14 23  1  0  0  0  0
 15  8  1  0  0  0  0
 15 20  2  0  0  0  0
 17 18  2  0  0  0  0
 18 16  1  0  0  0  0
 18  2  1  0  0  0  0
 19  3  1  0  0  0  0
 20 21  1  0  0  0  0
 21 14  2  0  0  0  0
 22  2  1  0  0  0  0
 23 24  1  0  0  0  0
 25 20  1  0  0  0  0
 25 26  1  0  0  0  0
 27 15  1  0  0  0  0
 28 27  1  0  0  0  0
M  END
>  <MODEL>
17

>  <REMARK>
 VINA RESULT:    -7.293      2.516      8.478
 INTER + INTRA:          -8.686
 INTER:                  -8.555
 INTRA:                  -0.131
 UNBOUND:                -0.114
  3 active torsions:
  status: ('A' for Active; 'I' for Inactive)
    1  A    between atoms: O3_3  and  C11_17 
    2  A    between atoms: O4_4  and  C12_18 
    3  A    between atoms: O5_5  and  C17_23 

>  <TORSDO>
F 3

$$$$
./Quelilutina.pdbqt
 OpenBabel10282519553D

 28 32  0  0  0  0  0  0  0  0999 V2000
  -36.9540   18.2730  -21.1740 O   0  0  0  0  0  0  0  0  0  0  0  0
  -39.2320   18.3390  -20.5620 O   0  0  0  0  0  0  0  0  0  0  0  0
  -34.1800   19.4810  -16.7730 N   0  0  0  0  0  0  0  0  0  0  0  0
  -35.4980   19.9550  -16.7600 C   0  0  0  0  0  0  0  0  0  0  0  0
  -35.8760   20.8310  -15.7140 C   0  0  0  0  0  0  0  0  0  0  0  0
  -34.8660   21.5170  -14.9670 C   0  0  0  0  0  0  0  0  0  0  0  0
  -36.4630   19.5700  -17.7580 C   0  0  0  0  0  0  0  0  0  0  0  0
  -33.5190   21.1410  -15.1600 C   0  0  0  0  0  0  0  0  0  0  0  0
  -37.8320   19.7160  -17.4400 C   0  0  0  0  0  0  0  0  0  0  0  0
  -33.2360   20.0380  -16.0210 C   0  0  0  0  0  3  0  0  0  0  0  0
  -37.2670   20.9510  -15.4260 C   0  0  0  0  0  3  0  0  0  0  0  0
  -38.2040   20.3620  -16.2230 C   0  0  0  0  0  3  0  0  0  0  0  0
  -36.0800   19.1300  -19.0600 C   0  0  0  0  0  2  0  0  0  0  0  0
  -35.1040   22.5970  -14.0570 C   0  0  0  0  0  0  0  0  0  0  0  0
  -32.4650   21.7760  -14.4800 C   0  0  0  0  0  0  0  0  0  0  0  0
  -38.8610   19.2830  -18.3300 C   0  0  0  0  0  3  0  0  0  0  0  0
  -37.0760   18.7380  -19.9010 C   0  0  0  0  0  0  0  0  0  0  0  0
  -38.4620   18.7910  -19.5330 C   0  0  0  0  0  0  0  0  0  0  0  0
  -33.8260   18.2440  -17.4870 C   0  0  0  0  0  1  0  0  0  0  0  0
  -32.7460   22.7530  -13.5210 C   0  0  0  0  0  0  0  0  0  0  0  0
  -34.0810   23.1800  -13.3370 C   0  0  0  0  0  3  0  0  0  0  0  0
  -38.3080   18.0080  -21.6270 C   0  0  0  0  0  2  0  0  0  0  0  0
  -36.3910   22.9880  -13.9990 O   0  0  0  0  0  0  0  0  0  0  0  0
  -36.9420   23.2930  -12.7180 C   0  0  0  0  0  1  0  0  0  0  0  0
  -31.8890   23.3910  -12.7150 O   0  0  0  0  0  0  0  0  0  0  0  0
  -32.0620   23.2760  -11.3020 C   0  0  0  0  0  1  0  0  0  0  0  0
  -31.1860   21.3390  -14.7090 O   0  0  0  0  0  0  0  0  0  0  0  0
  -30.6210   20.6850  -13.5690 C   0  0  0  0  0  1  0  0  0  0  0  0
  1 17  1  0  0  0  0
  2 18  1  0  0  0  0
  3  4  1  0  0  0  0
  3 10  1  0  0  0  0
  4  5  1  0  0  0  0
  5 11  1  0  0  0  0
  5  6  2  0  0  0  0
  6 14  1  0  0  0  0
  7  9  1  0  0  0  0
  7  4  2  0  0  0  0
  8  6  1  0  0  0  0
  8 15  1  0  0  0  0
  9 12  1  0  0  0  0
 10  8  2  0  0  0  0
 12 11  2  0  0  0  0
 13  7  1  0  0  0  0
 14 23  1  0  0  0  0
 14 21  2  0  0  0  0
 15 20  2  0  0  0  0
 16  9  2  0  0  0  0
 17 18  2  0  0  0  0
 17 13  1  0  0  0  0
 18 16  1  0  0  0  0
 19  3  1  0  0  0  0
 20 21  1  0  0  0  0
 20 25  1  0  0  0  0
 22  1  1  0  0  0  0
 22  2  1  0  0  0  0
 23 24  1  0  0  0  0
 25 26  1  0  0  0  0
 27 15  1  0  0  0  0
 27 28  1  0  0  0  0
M  END
>  <MODEL>
18

>  <REMARK>
 VINA RESULT:    -7.195      2.198      4.418
 INTER + INTRA:          -8.570
 INTER:                  -8.487
 INTRA:                  -0.083
 UNBOUND:                -0.114
  3 active torsions:
  status: ('A' for Active; 'I' for Inactive)
    1  A    between atoms: O3_3  and  C11_17 
    2  A    between atoms: O4_4  and  C12_18 
    3  A    between atoms: O5_5  and  C17_23 

>  <TORSDO>
F 3

$$$$
./Quelilutina.pdbqt
 OpenBabel10282519553D

 28 32  0  0  0  0  0  0  0  0999 V2000
   -9.4850   38.4810   12.6660 O   0  0  0  0  0  0  0  0  0  0  0  0
   -9.9100   36.1930   13.0610 O   0  0  0  0  0  0  0  0  0  0  0  0
   -6.3860   38.7050    8.3220 N   0  0  0  0  0  0  0  0  0  0  0  0
   -6.3240   37.4810    8.9990 C   0  0  0  0  0  0  0  0  0  0  0  0
   -5.3430   36.5460    8.5880 C   0  0  0  0  0  0  0  0  0  0  0  0
   -4.2210   36.9910    7.8200 C   0  0  0  0  0  0  0  0  0  0  0  0
   -7.2250   37.1510   10.0740 C   0  0  0  0  0  0  0  0  0  0  0  0
   -4.2330   38.3120    7.3190 C   0  0  0  0  0  0  0  0  0  0  0  0
   -7.3960   35.7850   10.3920 C   0  0  0  0  0  0  0  0  0  0  0  0
   -5.4000   39.1080    7.5260 C   0  0  0  0  0  3  0  0  0  0  0  0
   -5.5530   35.1780    8.9320 C   0  0  0  0  0  2  0  0  0  0  0  0
   -6.5790   34.8070    9.7500 C   0  0  0  0  0  3  0  0  0  0  0  0
   -7.8730   38.1500   10.8600 C   0  0  0  0  0  3  0  0  0  0  0  0
   -3.0490   36.2140    7.5450 C   0  0  0  0  0  0  0  0  0  0  0  0
   -3.1630   38.8330    6.5710 C   0  0  0  0  0  0  0  0  0  0  0  0
   -8.3300   35.3550   11.3830 C   0  0  0  0  0  3  0  0  0  0  0  0
   -8.7470   37.7210   11.8120 C   0  0  0  0  0  0  0  0  0  0  0  0
   -8.9940   36.3290   12.0600 C   0  0  0  0  0  0  0  0  0  0  0  0
   -7.6150   39.5150    8.3280 C   0  0  0  0  0  1  0  0  0  0  0  0
   -2.0860   38.0100    6.2330 C   0  0  0  0  0  0  0  0  0  0  0  0
   -2.0260   36.6970    6.7560 C   0  0  0  0  0  3  0  0  0  0  0  0
  -10.2380   37.5410   13.4760 C   0  0  0  0  0  2  0  0  0  0  0  0
   -3.0430   35.0080    8.1410 O   0  0  0  0  0  0  0  0  0  0  0  0
   -1.8130   34.5390    8.6930 C   0  0  0  0  0  1  0  0  0  0  0  0
   -1.0350   38.2990    5.4560 O   0  0  0  0  0  0  0  0  0  0  0  0
   -0.6230   37.3450    4.4770 C   0  0  0  0  0  1  0  0  0  0  0  0
   -3.2610   40.1180    6.1040 O   0  0  0  0  0  0  0  0  0  0  0  0
   -3.6340   40.1700    4.7240 C   0  0  0  0  0  1  0  0  0  0  0  0
  1 22  1  0  0  0  0
  2 22  1  0  0  0  0
  3 19  1  0  0  0  0
  3  4  1  0  0  0  0
  4  7  2  0  0  0  0
  5 11  1  0  0  0  0
  5  4  1  0  0  0  0
  6  5  2  0  0  0  0
  7  9  1  0  0  0  0
  7 13  1  0  0  0  0
  8 10  2  0  0  0  0
  8  6  1  0  0  0  0
  9 16  1  0  0  0  0
 10  3  1  0  0  0  0
 11 12  1  0  0  0  0
 12  9  2  0  0  0  0
 13 17  2  0  0  0  0
 14  6  1  0  0  0  0
 14 23  1  0  0  0  0
 15  8  1  0  0  0  0
 16 18  2  0  0  0  0
 17 18  1  0  0  0  0
 17  1  1  0  0  0  0
 18  2  1  0  0  0  0
 20 15  2  0  0  0  0
 20 21  1  0  0  0  0
 21 14  2  0  0  0  0
 23 24  1  0  0  0  0
 25 20  1  0  0  0  0
 26 25  1  0  0  0  0
 27 15  1  0  0  0  0
 28 27  1  0  0  0  0
M  END
>  <MODEL>
19

>  <REMARK>
 VINA RESULT:    -7.090     38.944     40.058
 INTER + INTRA:          -8.447
 INTER:                  -8.276
 INTRA:                  -0.171
 UNBOUND:                -0.114
  3 active torsions:
  status: ('A' for Active; 'I' for Inactive)
    1  A    between atoms: O3_3  and  C11_17 
    2  A    between atoms: O4_4  and  C12_18 
    3  A    between atoms: O5_5  and  C17_23 

>  <TORSDO>
F 3

$$$$
./Quelilutina.pdbqt
 OpenBabel10282519553D

 28 32  0  0  0  0  0  0  0  0999 V2000
  -42.1380   22.2630  -17.4660 O   0  0  0  0  0  0  0  0  0  0  0  0
  -42.8280   23.3570  -15.4920 O   0  0  0  0  0  0  0  0  0  0  0  0
  -37.3010   20.2400  -16.4510 N   0  0  0  0  0  0  0  0  0  0  0  0
  -37.6460   21.3200  -15.6300 C   0  0  0  0  0  0  0  0  0  0  0  0
  -36.6440   21.8600  -14.7880 C   0  0  0  0  0  0  0  0  0  0  0  0
  -35.2670   21.5940  -15.0700 C   0  0  0  0  0  0  0  0  0  0  0  0
  -38.9760   21.8770  -15.6110 C   0  0  0  0  0  0  0  0  0  0  0  0
  -34.9580   20.6320  -16.0580 C   0  0  0  0  0  0  0  0  0  0  0  0
  -39.3560   22.6320  -14.4800 C   0  0  0  0  0  0  0  0  0  0  0  0
  -36.0310   19.9080  -16.6620 C   0  0  0  0  0  3  0  0  0  0  0  0
  -37.0700   22.6180  -13.6580 C   0  0  0  0  0  3  0  0  0  0  0  0
  -38.3840   22.9350  -13.4790 C   0  0  0  0  0  3  0  0  0  0  0  0
  -39.8690   21.7550  -16.7170 C   0  0  0  0  0  2  0  0  0  0  0  0
  -34.1560   22.2590  -14.4580 C   0  0  0  0  0  0  0  0  0  0  0  0
  -33.6320   20.3240  -16.4070 C   0  0  0  0  0  0  0  0  0  0  0  0
  -40.6780   23.1510  -14.3310 C   0  0  0  0  0  3  0  0  0  0  0  0
  -41.1190   22.2720  -16.5640 C   0  0  0  0  0  0  0  0  0  0  0  0
  -41.5340   22.9480  -15.3680 C   0  0  0  0  0  0  0  0  0  0  0  0
  -38.3280   19.3270  -16.9760 C   0  0  0  0  0  1  0  0  0  0  0  0
  -32.5750   20.9170  -15.7120 C   0  0  0  0  0  0  0  0  0  0  0  0
  -32.8510   21.9150  -14.7490 C   0  0  0  0  0  3  0  0  0  0  0  0
  -43.2430   22.9460  -16.8180 C   0  0  0  0  0  2  0  0  0  0  0  0
  -34.5090   23.2430  -13.6110 O   0  0  0  0  0  0  0  0  0  0  0  0
  -33.5070   23.7750  -12.7450 C   0  0  0  0  0  1  0  0  0  0  0  0
  -31.2630   20.6780  -15.8390 O   0  0  0  0  0  0  0  0  0  0  0  0
  -30.3930   21.0540  -14.7720 C   0  0  0  0  0  1  0  0  0  0  0  0
  -33.4170   19.3640  -17.3620 O   0  0  0  0  0  0  0  0  0  0  0  0
  -33.0060   19.9210  -18.6130 C   0  0  0  0  0  1  0  0  0  0  0  0
  1 22  1  0  0  0  0
  1 17  1  0  0  0  0
  2 18  1  0  0  0  0
  3  4  1  0  0  0  0
  4  7  2  0  0  0  0
  4  5  1  0  0  0  0
  5 11  1  0  0  0  0
  6  5  2  0  0  0  0
  6 14  1  0  0  0  0
  7  9  1  0  0  0  0
  8  6  1  0  0  0  0
  9 16  2  0  0  0  0
  9 12  1  0  0  0  0
 10  3  1  0  0  0  0
 10  8  2  0  0  0  0
 11 12  2  0  0  0  0
 13 17  1  0  0  0  0
 13  7  1  0  0  0  0
 14 23  1  0  0  0  0
 15  8  1  0  0  0  0
 15 20  2  0  0  0  0
 17 18  2  0  0  0  0
 18 16  1  0  0  0  0
 19  3  1  0  0  0  0
 20 21  1  0  0  0  0
 21 14  2  0  0  0  0
 22  2  1  0  0  0  0
 23 24  1  0  0  0  0
 25 20  1  0  0  0  0
 25 26  1  0  0  0  0
 27 15  1  0  0  0  0
 28 27  1  0  0  0  0
M  END
>  <MODEL>
20

>  <REMARK>
 VINA RESULT:    -6.942      2.778      5.365
 INTER + INTRA:          -8.274
 INTER:                  -8.037
 INTRA:                  -0.237
 UNBOUND:                -0.114
  3 active torsions:
  status: ('A' for Active; 'I' for Inactive)
    1  A    between atoms: O3_3  and  C11_17 
    2  A    between atoms: O4_4  and  C12_18 
    3  A    between atoms: O5_5  and  C17_23 

>  <TORSDO>
F 3

$$$$
