./Quelirubina.pdbqt
 OpenBabel10282519553D

 27 32  0  0  0  0  0  0  0  0999 V2000
  -28.8150   21.7290  -13.1680 O   0  0  0  0  0  0  0  0  0  0  0  0
  -28.2550   23.3240  -11.7110 O   0  0  0  0  0  0  0  0  0  0  0  0
  -37.5240   19.7410  -16.9940 O   0  0  0  0  0  0  0  0  0  0  0  0
  -39.0700   21.1690  -16.2270 O   0  0  0  0  0  0  0  0  0  0  0  0
  -32.7140   21.0970  -14.7560 N   0  0  0  0  0  0  0  0  0  0  0  0
  -33.8040   21.8810  -14.3590 C   0  0  0  0  0  0  0  0  0  0  0  0
  -33.5570   22.9480  -13.4010 C   0  0  0  0  0  0  0  0  0  0  0  0
  -32.2320   23.1720  -12.8600 C   0  0  0  0  0  0  0  0  0  0  0  0
  -31.2090   22.2970  -13.3100 C   0  0  0  0  0  0  0  0  0  0  0  0
  -35.1740   21.6920  -14.8560 C   0  0  0  0  0  0  0  0  0  0  0  0
  -36.2060   22.5780  -14.3930 C   0  0  0  0  0  0  0  0  0  0  0  0
  -31.4740   21.3010  -14.2480 C   0  0  0  0  0  3  0  0  0  0  0  0
  -29.9070   22.4380  -12.8460 C   0  0  0  0  0  0  0  0  0  0  0  0
  -34.6350   23.7750  -13.0120 C   0  0  0  0  0  3  0  0  0  0  0  0
  -31.8320   24.1940  -11.9080 C   0  0  0  0  0  0  0  0  0  0  0  0
  -35.9060   23.6030  -13.4890 C   0  0  0  0  0  3  0  0  0  0  0  0
  -35.6110   20.6780  -15.7770 C   0  0  0  0  0  2  0  0  0  0  0  0
  -29.5660   23.4020  -11.9630 C   0  0  0  0  0  0  0  0  0  0  0  0
  -37.5550   22.4670  -14.8110 C   0  0  0  0  0  3  0  0  0  0  0  0
  -30.4820   24.3000  -11.4730 C   0  0  0  0  0  3  0  0  0  0  0  0
  -36.9430   20.6130  -16.1560 C   0  0  0  0  0  0  0  0  0  0  0  0
  -32.7720   19.9670  -15.6920 C   0  0  0  0  0  1  0  0  0  0  0  0
  -37.8720   21.4720  -15.6900 C   0  0  0  0  0  0  0  0  0  0  0  0
  -27.7360   22.2600  -12.4480 C   0  0  0  0  0  2  0  0  0  0  0  0
  -38.8880   20.0690  -17.0660 C   0  0  0  0  0  2  0  0  0  0  0  0
  -32.7300   25.0750  -11.4150 O   0  0  0  0  0  0  0  0  0  0  0  0
  -32.6570   26.4570  -11.4820 C   0  0  0  0  0  1  0  0  0  0  0  0
  1 13  1  0  0  0  0
  1 24  1  0  0  0  0
  3 21  1  0  0  0  0
  4 23  1  0  0  0  0
  5  6  1  0  0  0  0
  5 12  1  0  0  0  0
  6  7  1  0  0  0  0
  7 14  1  0  0  0  0
  7  8  2  0  0  0  0
  8 15  1  0  0  0  0
  9  8  1  0  0  0  0
  9 13  1  0  0  0  0
 10 11  1  0  0  0  0
 10  6  2  0  0  0  0
 11 16  1  0  0  0  0
 12  9  2  0  0  0  0
 13 18  2  0  0  0  0
 15 20  2  0  0  0  0
 15 26  1  0  0  0  0
 16 14  2  0  0  0  0
 17 10  1  0  0  0  0
 18  2  1  0  0  0  0
 18 20  1  0  0  0  0
 19 11  2  0  0  0  0
 21 17  1  0  0  0  0
 21 23  2  0  0  0  0
 22  5  1  0  0  0  0
 23 19  1  0  0  0  0
 24  2  1  0  0  0  0
 25  3  1  0  0  0  0
 25  4  1  0  0  0  0
 27 26  1  0  0  0  0
M  END
>  <MODEL>
1

>  <REMARK>
 VINA RESULT:   -10.333      0.000      0.000
 INTER + INTRA:         -11.049
 INTER:                 -10.937
 INTRA:                  -0.112
 UNBOUND:                -0.112
  1 active torsions:
  status: ('A' for Active; 'I' for Inactive)
    1  A    between atoms: O3_3  and  C10_16 

>  <TORSDO>
F 1

$$$$
./Quelirubina.pdbqt
 OpenBabel10282519553D

 27 32  0  0  0  0  0  0  0  0999 V2000
  -33.6910   25.1500  -11.8820 O   0  0  0  0  0  0  0  0  0  0  0  0
  -31.6660   24.8740  -10.9890 O   0  0  0  0  0  0  0  0  0  0  0  0
  -38.1370   19.8180  -18.6820 O   0  0  0  0  0  0  0  0  0  0  0  0
  -36.8360   18.1130  -19.3280 O   0  0  0  0  0  0  0  0  0  0  0  0
  -35.4540   22.6240  -14.8210 N   0  0  0  0  0  0  0  0  0  0  0  0
  -34.7650   21.5290  -15.3570 C   0  0  0  0  0  0  0  0  0  0  0  0
  -33.4270   21.2600  -14.8540 C   0  0  0  0  0  0  0  0  0  0  0  0
  -32.8220   22.1130  -13.8500 C   0  0  0  0  0  0  0  0  0  0  0  0
  -33.6010   23.2110  -13.4020 C   0  0  0  0  0  0  0  0  0  0  0  0
  -35.3150   20.6400  -16.3900 C   0  0  0  0  0  0  0  0  0  0  0  0
  -34.5200   19.5320  -16.8430 C   0  0  0  0  0  0  0  0  0  0  0  0
  -34.8900   23.4270  -13.8860 C   0  0  0  0  0  3  0  0  0  0  0  0
  -33.1030   24.0820  -12.4400 C   0  0  0  0  0  0  0  0  0  0  0  0
  -32.7250   20.1410  -15.3540 C   0  0  0  0  0  3  0  0  0  0  0  0
  -31.5070   21.9680  -13.2510 C   0  0  0  0  0  0  0  0  0  0  0  0
  -33.2480   19.3070  -16.3060 C   0  0  0  0  0  3  0  0  0  0  0  0
  -36.6000   20.7660  -17.0230 C   0  0  0  0  0  2  0  0  0  0  0  0
  -31.8760   23.9180  -11.8980 C   0  0  0  0  0  0  0  0  0  0  0  0
  -34.9650   18.6280  -17.8390 C   0  0  0  0  0  3  0  0  0  0  0  0
  -31.0500   22.8830  -12.2620 C   0  0  0  0  0  3  0  0  0  0  0  0
  -36.9890   19.8530  -17.9910 C   0  0  0  0  0  0  0  0  0  0  0  0
  -36.7990   23.0620  -15.2180 C   0  0  0  0  0  1  0  0  0  0  0  0
  -36.2010   18.8300  -18.3800 C   0  0  0  0  0  0  0  0  0  0  0  0
  -32.7930   25.6930  -10.9540 C   0  0  0  0  0  2  0  0  0  0  0  0
  -38.0760   18.7130  -19.5480 C   0  0  0  0  0  2  0  0  0  0  0  0
  -30.6860   20.9580  -13.6110 O   0  0  0  0  0  0  0  0  0  0  0  0
  -29.3180   21.0360  -13.8200 C   0  0  0  0  0  1  0  0  0  0  0  0
  1 24  1  0  0  0  0
  2 24  1  0  0  0  0
  3 21  1  0  0  0  0
  4 23  1  0  0  0  0
  5 12  1  0  0  0  0
  6  7  1  0  0  0  0
  6  5  1  0  0  0  0
  7  8  2  0  0  0  0
  8  9  1  0  0  0  0
  8 15  1  0  0  0  0
  9 13  1  0  0  0  0
 10  6  2  0  0  0  0
 11 10  1  0  0  0  0
 11 16  1  0  0  0  0
 12  9  2  0  0  0  0
 13 18  2  0  0  0  0
 13  1  1  0  0  0  0
 14  7  1  0  0  0  0
 15 20  2  0  0  0  0
 16 14  2  0  0  0  0
 17 10  1  0  0  0  0
 18  2  1  0  0  0  0
 19 11  2  0  0  0  0
 20 18  1  0  0  0  0
 21 17  1  0  0  0  0
 22  5  1  0  0  0  0
 23 21  2  0  0  0  0
 23 19  1  0  0  0  0
 25  4  1  0  0  0  0
 25  3  1  0  0  0  0
 26 15  1  0  0  0  0
 27 26  1  0  0  0  0
M  END
>  <MODEL>
2

>  <REMARK>
 VINA RESULT:    -9.934      1.689      3.978
 INTER + INTRA:         -10.627
 INTER:                 -10.504
 INTRA:                  -0.123
 UNBOUND:                -0.112
  1 active torsions:
  status: ('A' for Active; 'I' for Inactive)
    1  A    between atoms: O3_3  and  C10_16 

>  <TORSDO>
F 1

$$$$
./Quelirubina.pdbqt
 OpenBabel10282519553D

 27 32  0  0  0  0  0  0  0  0999 V2000
  -38.6760   20.9390  -17.3860 O   0  0  0  0  0  0  0  0  0  0  0  0
  -38.4480   19.2650  -18.8420 O   0  0  0  0  0  0  0  0  0  0  0  0
  -32.1460   24.5410  -11.1560 O   0  0  0  0  0  0  0  0  0  0  0  0
  -30.1960   23.4520  -11.3340 O   0  0  0  0  0  0  0  0  0  0  0  0
  -35.6250   22.3840  -14.7920 N   0  0  0  0  0  0  0  0  0  0  0  0
  -34.3560   21.7960  -14.7530 C   0  0  0  0  0  0  0  0  0  0  0  0
  -34.0970   20.6850  -15.6550 C   0  0  0  0  0  0  0  0  0  0  0  0
  -35.1290   20.1900  -16.5440 C   0  0  0  0  0  0  0  0  0  0  0  0
  -36.3870   20.8430  -16.4760 C   0  0  0  0  0  0  0  0  0  0  0  0
  -33.2740   22.2380  -13.8610 C   0  0  0  0  0  0  0  0  0  0  0  0
  -32.0040   21.5710  -13.9310 C   0  0  0  0  0  0  0  0  0  0  0  0
  -36.5950   21.9220  -15.6190 C   0  0  0  0  0  3  0  0  0  0  0  0
  -37.4360   20.4370  -17.2930 C   0  0  0  0  0  0  0  0  0  0  0  0
  -32.8120   20.0970  -15.6590 C   0  0  0  0  0  2  0  0  0  0  0  0
  -35.0190   19.1010  -17.4990 C   0  0  0  0  0  0  0  0  0  0  0  0
  -31.8040   20.5220  -14.8360 C   0  0  0  0  0  3  0  0  0  0  0  0
  -33.3540   23.2940  -12.8880 C   0  0  0  0  0  3  0  0  0  0  0  0
  -37.3010   19.4230  -18.1750 C   0  0  0  0  0  0  0  0  0  0  0  0
  -30.9070   21.9230  -13.1070 C   0  0  0  0  0  3  0  0  0  0  0  0
  -36.1220   18.7340  -18.3190 C   0  0  0  0  0  3  0  0  0  0  0  0
  -32.2510   23.6010  -12.1060 C   0  0  0  0  0  0  0  0  0  0  0  0
  -36.0760   23.4970  -13.9450 C   0  0  0  0  0  1  0  0  0  0  0  0
  -31.0800   22.9400  -12.2130 C   0  0  0  0  0  0  0  0  0  0  0  0
  -39.3600   20.2030  -18.3620 C   0  0  0  0  0  2  0  0  0  0  0  0
  -30.8400   24.4770  -10.6400 C   0  0  0  0  0  2  0  0  0  0  0  0
  -33.8650   18.4130  -17.6400 O   0  0  0  0  0  0  0  0  0  0  0  0
  -33.4910   17.6340  -18.7220 C   0  0  0  0  0  1  0  0  0  0  0  0
  1 13  1  0  0  0  0
  2 24  1  0  0  0  0
  2 18  1  0  0  0  0
  3 25  1  0  0  0  0
  4 25  1  0  0  0  0
  5  6  1  0  0  0  0
  5 22  1  0  0  0  0
  6 10  2  0  0  0  0
  7  6  1  0  0  0  0
  8  9  1  0  0  0  0
  8  7  2  0  0  0  0
  9 12  2  0  0  0  0
 10 17  1  0  0  0  0
 11 10  1  0  0  0  0
 11 19  1  0  0  0  0
 12  5  1  0  0  0  0
 13  9  1  0  0  0  0
 14  7  1  0  0  0  0
 14 16  1  0  0  0  0
 15  8  1  0  0  0  0
 16 11  2  0  0  0  0
 17 21  2  0  0  0  0
 18 13  2  0  0  0  0
 19 23  2  0  0  0  0
 20 18  1  0  0  0  0
 20 15  2  0  0  0  0
 21  3  1  0  0  0  0
 23 21  1  0  0  0  0
 23  4  1  0  0  0  0
 24  1  1  0  0  0  0
 26 15  1  0  0  0  0
 27 26  1  0  0  0  0
M  END
>  <MODEL>
3

>  <REMARK>
 VINA RESULT:    -9.892      1.786      8.085
 INTER + INTRA:         -10.582
 INTER:                 -10.470
 INTRA:                  -0.112
 UNBOUND:                -0.112
  1 active torsions:
  status: ('A' for Active; 'I' for Inactive)
    1  A    between atoms: O3_3  and  C10_16 

>  <TORSDO>
F 1

$$$$
./Quelirubina.pdbqt
 OpenBabel10282519553D

 27 32  0  0  0  0  0  0  0  0999 V2000
  -33.5060   17.5630  -18.2220 O   0  0  0  0  0  0  0  0  0  0  0  0
  -35.4330   17.1130  -19.2530 O   0  0  0  0  0  0  0  0  0  0  0  0
  -31.5770   24.4190  -11.6100 O   0  0  0  0  0  0  0  0  0  0  0  0
  -33.4140   25.6150  -11.1510 O   0  0  0  0  0  0  0  0  0  0  0  0
  -32.9250   20.5980  -15.2940 N   0  0  0  0  0  0  0  0  0  0  0  0
  -33.9620   21.4580  -14.9120 C   0  0  0  0  0  0  0  0  0  0  0  0
  -35.2650   21.2630  -15.5300 C   0  0  0  0  0  0  0  0  0  0  0  0
  -35.4710   20.2290  -16.5240 C   0  0  0  0  0  0  0  0  0  0  0  0
  -34.3410   19.4370  -16.8560 C   0  0  0  0  0  0  0  0  0  0  0  0
  -33.8120   22.5380  -13.9260 C   0  0  0  0  0  0  0  0  0  0  0  0
  -34.9580   23.3390  -13.5980 C   0  0  0  0  0  0  0  0  0  0  0  0
  -33.1130   19.6330  -16.2270 C   0  0  0  0  0  3  0  0  0  0  0  0
  -34.4460   18.4210  -17.7980 C   0  0  0  0  0  0  0  0  0  0  0  0
  -36.3360   22.0960  -15.1360 C   0  0  0  0  0  2  0  0  0  0  0  0
  -36.7070   19.9110  -17.2190 C   0  0  0  0  0  0  0  0  0  0  0  0
  -36.1930   23.0900  -14.2060 C   0  0  0  0  0  3  0  0  0  0  0  0
  -32.6010   22.8960  -13.2380 C   0  0  0  0  0  3  0  0  0  0  0  0
  -35.6110   18.1470  -18.4240 C   0  0  0  0  0  0  0  0  0  0  0  0
  -34.9060   24.4040  -12.6650 C   0  0  0  0  0  3  0  0  0  0  0  0
  -36.7610   18.8530  -18.1670 C   0  0  0  0  0  3  0  0  0  0  0  0
  -32.6030   23.9470  -12.3330 C   0  0  0  0  0  0  0  0  0  0  0  0
  -31.5440   20.6560  -14.7980 C   0  0  0  0  0  1  0  0  0  0  0  0
  -33.7100   24.6670  -12.0620 C   0  0  0  0  0  0  0  0  0  0  0  0
  -34.0990   16.7160  -19.1670 C   0  0  0  0  0  2  0  0  0  0  0  0
  -32.0600   25.4880  -10.8380 C   0  0  0  0  0  2  0  0  0  0  0  0
  -37.8390   20.6070  -16.9780 O   0  0  0  0  0  0  0  0  0  0  0  0
  -39.0750   20.0860  -16.6300 C   0  0  0  0  0  1  0  0  0  0  0  0
  1 13  1  0  0  0  0
  2 24  1  0  0  0  0
  2 18  1  0  0  0  0
  3 25  1  0  0  0  0
  4 25  1  0  0  0  0
  5  6  1  0  0  0  0
  5 22  1  0  0  0  0
  6 10  2  0  0  0  0
  7 14  1  0  0  0  0
  7  6  1  0  0  0  0
  8  7  2  0  0  0  0
  9  8  1  0  0  0  0
  9 12  2  0  0  0  0
 10 11  1  0  0  0  0
 10 17  1  0  0  0  0
 11 19  1  0  0  0  0
 12  5  1  0  0  0  0
 13  9  1  0  0  0  0
 14 16  1  0  0  0  0
 15 26  1  0  0  0  0
 15  8  1  0  0  0  0
 16 11  2  0  0  0  0
 17 21  2  0  0  0  0
 18 20  1  0  0  0  0
 18 13  2  0  0  0  0
 19 23  2  0  0  0  0
 20 15  2  0  0  0  0
 21 23  1  0  0  0  0
 21  3  1  0  0  0  0
 23  4  1  0  0  0  0
 24  1  1  0  0  0  0
 26 27  1  0  0  0  0
M  END
>  <MODEL>
4

>  <REMARK>
 VINA RESULT:    -9.713      2.058      7.119
 INTER + INTRA:         -10.394
 INTER:                 -10.274
 INTRA:                  -0.120
 UNBOUND:                -0.112
  1 active torsions:
  status: ('A' for Active; 'I' for Inactive)
    1  A    between atoms: O3_3  and  C10_16 

>  <TORSDO>
F 1

$$$$
./Quelirubina.pdbqt
 OpenBabel10282519553D

 27 32  0  0  0  0  0  0  0  0999 V2000
  -36.9010   19.1250  -17.7940 O   0  0  0  0  0  0  0  0  0  0  0  0
  -39.0150   19.8400  -17.7910 O   0  0  0  0  0  0  0  0  0  0  0  0
  -29.3400   22.4170  -12.6530 O   0  0  0  0  0  0  0  0  0  0  0  0
  -29.9620   24.1080  -11.3230 O   0  0  0  0  0  0  0  0  0  0  0  0
  -33.7630   20.6990  -15.3860 N   0  0  0  0  0  0  0  0  0  0  0  0
  -33.9730   21.7790  -14.5210 C   0  0  0  0  0  0  0  0  0  0  0  0
  -35.3150   22.3350  -14.4460 C   0  0  0  0  0  0  0  0  0  0  0  0
  -36.3900   21.8020  -15.2580 C   0  0  0  0  0  0  0  0  0  0  0  0
  -36.0550   20.7270  -16.1220 C   0  0  0  0  0  0  0  0  0  0  0  0
  -32.9210   22.3780  -13.6860 C   0  0  0  0  0  0  0  0  0  0  0  0
  -33.2660   23.4690  -12.8170 C   0  0  0  0  0  0  0  0  0  0  0  0
  -34.7640   20.2010  -16.1520 C   0  0  0  0  0  3  0  0  0  0  0  0
  -37.0210   20.1510  -16.9380 C   0  0  0  0  0  0  0  0  0  0  0  0
  -35.5600   23.4030  -13.5530 C   0  0  0  0  0  3  0  0  0  0  0  0
  -37.7730   22.2440  -15.2870 C   0  0  0  0  0  0  0  0  0  0  0  0
  -34.5800   23.9470  -12.7670 C   0  0  0  0  0  3  0  0  0  0  0  0
  -31.5390   21.9830  -13.6490 C   0  0  0  0  0  2  0  0  0  0  0  0
  -38.3010   20.5820  -16.9390 C   0  0  0  0  0  0  0  0  0  0  0  0
  -32.3180   24.1110  -11.9820 C   0  0  0  0  0  3  0  0  0  0  0  0
  -38.7250   21.6120  -16.1340 C   0  0  0  0  0  3  0  0  0  0  0  0
  -30.6510   22.6440  -12.8130 C   0  0  0  0  0  0  0  0  0  0  0  0
  -32.4780   20.0240  -15.6120 C   0  0  0  0  0  1  0  0  0  0  0  0
  -31.0290   23.6650  -12.0170 C   0  0  0  0  0  0  0  0  0  0  0  0
  -38.1590   18.9050  -18.3710 C   0  0  0  0  0  2  0  0  0  0  0  0
  -28.8650   23.3350  -11.7030 C   0  0  0  0  0  2  0  0  0  0  0  0
  -38.1940   23.2620  -14.5060 O   0  0  0  0  0  0  0  0  0  0  0  0
  -39.4070   23.3490  -13.8410 C   0  0  0  0  0  1  0  0  0  0  0  0
  1 13  1  0  0  0  0
  2 18  1  0  0  0  0
  3 25  1  0  0  0  0
  5  6  1  0  0  0  0
  6  7  1  0  0  0  0
  6 10  2  0  0  0  0
  7 14  1  0  0  0  0
  8  7  2  0  0  0  0
  9  8  1  0  0  0  0
 10 17  1  0  0  0  0
 10 11  1  0  0  0  0
 11 16  1  0  0  0  0
 11 19  2  0  0  0  0
 12  9  2  0  0  0  0
 12  5  1  0  0  0  0
 13  9  1  0  0  0  0
 14 16  2  0  0  0  0
 15  8  1  0  0  0  0
 15 26  1  0  0  0  0
 17 21  1  0  0  0  0
 18 13  2  0  0  0  0
 18 20  1  0  0  0  0
 20 15  2  0  0  0  0
 21  3  1  0  0  0  0
 21 23  2  0  0  0  0
 22  5  1  0  0  0  0
 23 19  1  0  0  0  0
 23  4  1  0  0  0  0
 24  1  1  0  0  0  0
 24  2  1  0  0  0  0
 25  4  1  0  0  0  0
 26 27  1  0  0  0  0
M  END
>  <MODEL>
5

>  <REMARK>
 VINA RESULT:    -9.444      1.198      7.400
 INTER + INTRA:         -10.109
 INTER:                  -9.986
 INTRA:                  -0.122
 UNBOUND:                -0.112
  1 active torsions:
  status: ('A' for Active; 'I' for Inactive)
    1  A    between atoms: O3_3  and  C10_16 

>  <TORSDO>
F 1

$$$$
./Quelirubina.pdbqt
 OpenBabel10282519553D

 27 32  0  0  0  0  0  0  0  0999 V2000
  -31.8880   24.0800  -11.8970 O   0  0  0  0  0  0  0  0  0  0  0  0
  -33.4790   25.2620  -10.8740 O   0  0  0  0  0  0  0  0  0  0  0  0
  -32.7760   17.5850  -19.0710 O   0  0  0  0  0  0  0  0  0  0  0  0
  -34.9200   17.3660  -19.6810 O   0  0  0  0  0  0  0  0  0  0  0  0
  -32.5260   21.3260  -15.0800 N   0  0  0  0  0  0  0  0  0  0  0  0
  -33.8100   21.0470  -15.5640 C   0  0  0  0  0  0  0  0  0  0  0  0
  -34.9280   21.7550  -14.9600 C   0  0  0  0  0  0  0  0  0  0  0  0
  -34.7190   22.6970  -13.8800 C   0  0  0  0  0  0  0  0  0  0  0  0
  -33.3790   22.8780  -13.4500 C   0  0  0  0  0  0  0  0  0  0  0  0
  -34.0910   20.0880  -16.6420 C   0  0  0  0  0  0  0  0  0  0  0  0
  -35.4500   19.9070  -17.0690 C   0  0  0  0  0  0  0  0  0  0  0  0
  -32.3260   22.2030  -14.0660 C   0  0  0  0  0  3  0  0  0  0  0  0
  -33.0820   23.7630  -12.4200 C   0  0  0  0  0  0  0  0  0  0  0  0
  -36.2310   21.5160  -15.4550 C   0  0  0  0  0  3  0  0  0  0  0  0
  -35.7280   23.4800  -13.1870 C   0  0  0  0  0  0  0  0  0  0  0  0
  -36.4840   20.6330  -16.4690 C   0  0  0  0  0  3  0  0  0  0  0  0
  -33.1220   19.2800  -17.3330 C   0  0  0  0  0  2  0  0  0  0  0  0
  -34.0440   24.4790  -11.7980 C   0  0  0  0  0  0  0  0  0  0  0  0
  -35.8150   19.0010  -18.0960 C   0  0  0  0  0  3  0  0  0  0  0  0
  -35.3680   24.3790  -12.1460 C   0  0  0  0  0  3  0  0  0  0  0  0
  -33.5310   18.4100  -18.3320 C   0  0  0  0  0  0  0  0  0  0  0  0
  -31.2840   20.6970  -15.5480 C   0  0  0  0  0  1  0  0  0  0  0  0
  -34.8240   18.2780  -18.6930 C   0  0  0  0  0  0  0  0  0  0  0  0
  -32.1050   25.0310  -10.8910 C   0  0  0  0  0  2  0  0  0  0  0  0
  -33.6320   16.9020  -19.9500 C   0  0  0  0  0  2  0  0  0  0  0  0
  -37.0340   23.3790  -13.5170 O   0  0  0  0  0  0  0  0  0  0  0  0
  -38.0540   22.8840  -12.7210 C   0  0  0  0  0  1  0  0  0  0  0  0
  1 24  1  0  0  0  0
  3 21  1  0  0  0  0
  4 23  1  0  0  0  0
  5 12  1  0  0  0  0
  6  5  1  0  0  0  0
  6  7  1  0  0  0  0
  7  8  2  0  0  0  0
  8  9  1  0  0  0  0
  8 15  1  0  0  0  0
  9 13  1  0  0  0  0
 10  6  2  0  0  0  0
 11 10  1  0  0  0  0
 11 16  1  0  0  0  0
 12  9  2  0  0  0  0
 13  1  1  0  0  0  0
 13 18  2  0  0  0  0
 14  7  1  0  0  0  0
 15 20  2  0  0  0  0
 16 14  2  0  0  0  0
 17 10  1  0  0  0  0
 18  2  1  0  0  0  0
 19 11  2  0  0  0  0
 20 18  1  0  0  0  0
 21 17  1  0  0  0  0
 22  5  1  0  0  0  0
 23 21  2  0  0  0  0
 23 19  1  0  0  0  0
 24  2  1  0  0  0  0
 25  4  1  0  0  0  0
 25  3  1  0  0  0  0
 26 15  1  0  0  0  0
 26 27  1  0  0  0  0
M  END
>  <MODEL>
6

>  <REMARK>
 VINA RESULT:    -9.262      2.439      4.335
 INTER + INTRA:          -9.916
 INTER:                  -9.838
 INTRA:                  -0.078
 UNBOUND:                -0.112
  1 active torsions:
  status: ('A' for Active; 'I' for Inactive)
    1  A    between atoms: O3_3  and  C10_16 

>  <TORSDO>
F 1

$$$$
./Quelirubina.pdbqt
 OpenBabel10282519553D

 27 32  0  0  0  0  0  0  0  0999 V2000
  -30.5510   23.3580  -11.8280 O   0  0  0  0  0  0  0  0  0  0  0  0
  -28.9750   22.1710  -12.8690 O   0  0  0  0  0  0  0  0  0  0  0  0
  -40.0830   23.7850  -13.6710 O   0  0  0  0  0  0  0  0  0  0  0  0
  -40.6190   22.4480  -15.3860 O   0  0  0  0  0  0  0  0  0  0  0  0
  -34.6990   23.3260  -12.7870 N   0  0  0  0  0  0  0  0  0  0  0  0
  -35.2000   22.5680  -13.8520 C   0  0  0  0  0  0  0  0  0  0  0  0
  -34.2570   21.7600  -14.6100 C   0  0  0  0  0  0  0  0  0  0  0  0
  -32.8450   21.7630  -14.2870 C   0  0  0  0  0  0  0  0  0  0  0  0
  -32.4450   22.5930  -13.2080 C   0  0  0  0  0  0  0  0  0  0  0  0
  -36.6170   22.5380  -14.2430 C   0  0  0  0  0  0  0  0  0  0  0  0
  -37.0140   21.7000  -15.3390 C   0  0  0  0  0  0  0  0  0  0  0  0
  -33.3770   23.3340  -12.4840 C   0  0  0  0  0  3  0  0  0  0  0  0
  -31.1110   22.6570  -12.8250 C   0  0  0  0  0  0  0  0  0  0  0  0
  -34.7440   20.9600  -15.6680 C   0  0  0  0  0  2  0  0  0  0  0  0
  -31.7910   21.0090  -14.9440 C   0  0  0  0  0  0  0  0  0  0  0  0
  -36.0670   20.9250  -16.0180 C   0  0  0  0  0  3  0  0  0  0  0  0
  -37.6820   23.2880  -13.6320 C   0  0  0  0  0  3  0  0  0  0  0  0
  -30.1540   21.9400  -13.4540 C   0  0  0  0  0  0  0  0  0  0  0  0
  -38.3550   21.6130  -15.7900 C   0  0  0  0  0  3  0  0  0  0  0  0
  -30.4410   21.1050  -14.5060 C   0  0  0  0  0  3  0  0  0  0  0  0
  -38.9780   23.1660  -14.1100 C   0  0  0  0  0  0  0  0  0  0  0  0
  -35.4910   24.2140  -11.9250 C   0  0  0  0  0  1  0  0  0  0  0  0
  -39.2950   22.3630  -15.1450 C   0  0  0  0  0  0  0  0  0  0  0  0
  -29.1770   23.0820  -11.8330 C   0  0  0  0  0  2  0  0  0  0  0  0
  -41.1560   23.3460  -14.4630 C   0  0  0  0  0  2  0  0  0  0  0  0
  -32.0650   20.1930  -15.9850 O   0  0  0  0  0  0  0  0  0  0  0  0
  -32.0070   20.5180  -17.3310 C   0  0  0  0  0  1  0  0  0  0  0  0
  2 24  1  0  0  0  0
  4 23  1  0  0  0  0
  4 25  1  0  0  0  0
  5 12  1  0  0  0  0
  5 22  1  0  0  0  0
  6  5  1  0  0  0  0
  7  8  2  0  0  0  0
  7  6  1  0  0  0  0
  8  9  1  0  0  0  0
  9 13  1  0  0  0  0
  9 12  2  0  0  0  0
 10  6  2  0  0  0  0
 10 17  1  0  0  0  0
 11 10  1  0  0  0  0
 13  1  1  0  0  0  0
 14  7  1  0  0  0  0
 15 20  2  0  0  0  0
 15  8  1  0  0  0  0
 16 14  1  0  0  0  0
 16 11  2  0  0  0  0
 18  2  1  0  0  0  0
 18 13  2  0  0  0  0
 19 11  1  0  0  0  0
 19 23  2  0  0  0  0
 20 18  1  0  0  0  0
 21  3  1  0  0  0  0
 21 17  2  0  0  0  0
 23 21  1  0  0  0  0
 24  1  1  0  0  0  0
 25  3  1  0  0  0  0
 26 15  1  0  0  0  0
 27 26  1  0  0  0  0
M  END
>  <MODEL>
7

>  <REMARK>
 VINA RESULT:    -9.149      1.884      3.754
 INTER + INTRA:          -9.797
 INTER:                  -9.945
 INTRA:                   0.148
 UNBOUND:                -0.112
  1 active torsions:
  status: ('A' for Active; 'I' for Inactive)
    1  A    between atoms: O3_3  and  C10_16 

>  <TORSDO>
F 1

$$$$
./Quelirubina.pdbqt
 OpenBabel10282519553D

 27 32  0  0  0  0  0  0  0  0999 V2000
  -42.6930   23.9490    2.6440 O   0  0  0  0  0  0  0  0  0  0  0  0
  -42.9960   25.8100    3.8350 O   0  0  0  0  0  0  0  0  0  0  0  0
  -43.2890   22.6960   -6.9750 O   0  0  0  0  0  0  0  0  0  0  0  0
  -43.7900   24.6260   -7.9950 O   0  0  0  0  0  0  0  0  0  0  0  0
  -42.9470   23.6670   -1.5970 N   0  0  0  0  0  0  0  0  0  0  0  0
  -43.2810   24.7730   -2.3870 C   0  0  0  0  0  0  0  0  0  0  0  0
  -43.5120   26.0410   -1.7130 C   0  0  0  0  0  0  0  0  0  0  0  0
  -43.4230   26.1460   -0.2700 C   0  0  0  0  0  0  0  0  0  0  0  0
  -43.1080   24.9540    0.4320 C   0  0  0  0  0  0  0  0  0  0  0  0
  -43.4070   24.7270   -3.8510 C   0  0  0  0  0  0  0  0  0  0  0  0
  -43.7310   25.9370   -4.5550 C   0  0  0  0  0  0  0  0  0  0  0  0
  -42.8670   23.7600   -0.2470 C   0  0  0  0  0  3  0  0  0  0  0  0
  -43.0000   24.9590    1.8170 C   0  0  0  0  0  0  0  0  0  0  0  0
  -43.8170   27.1800   -2.4920 C   0  0  0  0  0  2  0  0  0  0  0  0
  -43.6190   27.3370    0.5390 C   0  0  0  0  0  0  0  0  0  0  0  0
  -43.9190   27.1340   -3.8570 C   0  0  0  0  0  3  0  0  0  0  0  0
  -43.2440   23.5640   -4.6810 C   0  0  0  0  0  3  0  0  0  0  0  0
  -43.1840   26.0850    2.5410 C   0  0  0  0  0  0  0  0  0  0  0  0
  -43.8790   25.9860   -5.9640 C   0  0  0  0  0  3  0  0  0  0  0  0
  -43.4870   27.2890    1.9540 C   0  0  0  0  0  3  0  0  0  0  0  0
  -43.3990   23.6660   -6.0550 C   0  0  0  0  0  0  0  0  0  0  0  0
  -42.7000   22.3070   -2.0940 C   0  0  0  0  0  1  0  0  0  0  0  0
  -43.7040   24.8290   -6.6650 C   0  0  0  0  0  0  0  0  0  0  0  0
  -42.6940   24.4540    3.9500 C   0  0  0  0  0  2  0  0  0  0  0  0
  -43.5310   23.2760   -8.2310 C   0  0  0  0  0  2  0  0  0  0  0  0
  -43.9260   28.5220   -0.0320 O   0  0  0  0  0  0  0  0  0  0  0  0
  -43.3410   29.7480    0.2390 C   0  0  0  0  0  1  0  0  0  0  0  0
  1 24  1  0  0  0  0
  2 24  1  0  0  0  0
  3 21  1  0  0  0  0
  4 23  1  0  0  0  0
  5 12  1  0  0  0  0
  6  7  1  0  0  0  0
  6  5  1  0  0  0  0
  7  8  2  0  0  0  0
  8  9  1  0  0  0  0
  8 15  1  0  0  0  0
  9 13  1  0  0  0  0
 10  6  2  0  0  0  0
 11 16  2  0  0  0  0
 11 10  1  0  0  0  0
 12  9  2  0  0  0  0
 13 18  2  0  0  0  0
 13  1  1  0  0  0  0
 14  7  1  0  0  0  0
 15 20  2  0  0  0  0
 16 14  1  0  0  0  0
 17 10  1  0  0  0  0
 18  2  1  0  0  0  0
 19 11  1  0  0  0  0
 20 18  1  0  0  0  0
 21 17  2  0  0  0  0
 22  5  1  0  0  0  0
 23 21  1  0  0  0  0
 23 19  2  0  0  0  0
 25  4  1  0  0  0  0
 25  3  1  0  0  0  0
 26 27  1  0  0  0  0
 26 15  1  0  0  0  0
M  END
>  <MODEL>
8

>  <REMARK>
 VINA RESULT:    -7.954     14.462     16.231
 INTER + INTRA:          -8.531
 INTER:                  -8.406
 INTRA:                  -0.125
 UNBOUND:                -0.112
  1 active torsions:
  status: ('A' for Active; 'I' for Inactive)
    1  A    between atoms: O3_3  and  C10_16 

>  <TORSDO>
F 1

$$$$
./Quelirubina.pdbqt
 OpenBabel10282519553D

 27 32  0  0  1  0  0  0  0  0999 V2000
   -2.2750   38.5030    5.4740 O   0  0  0  0  0  0  0  0  0  0  0  0
   -1.1090   36.7670    4.6970 O   0  0  0  0  0  0  0  0  0  0  0  0
   -9.3500   38.6120   12.1340 O   0  0  0  0  0  0  0  0  0  0  0  0
   -9.7380   36.5480   12.9120 O   0  0  0  0  0  0  0  0  0  0  0  0
   -5.3010   38.3020    8.4610 N   0  0  0  0  0  0  0  0  0  0  0  0
   -5.6900   37.0840    9.0320 C   0  0  0  0  0  0  0  0  0  0  0  0
   -5.0020   35.8810    8.5910 C   0  0  0  0  0  0  0  0  0  0  0  0
   -3.9680   35.9410    7.5780 C   0  0  0  0  0  0  0  0  0  0  0  0
   -3.6780   37.2250    7.0470 C   0  0  0  0  0  0  0  0  0  0  0  0
   -6.7440   36.9540   10.0480 C   0  0  0  0  0  0  0  0  0  0  0  0
   -7.0360   35.6510   10.5770 C   0  0  2  0  0  3  0  0  0  0  0  0
   -4.3380   38.3630    7.5100 C   0  0  0  0  0  3  0  0  0  0  0  0
   -2.7000   37.3800    6.0730 C   0  0  0  0  0  0  0  0  0  0  0  0
   -5.3530   34.6440    9.1780 C   0  0  0  0  0  3  0  0  0  0  0  0
   -3.1930   34.8340    7.0450 C   0  0  0  0  0  0  0  0  0  0  0  0
   -6.3250   34.5300   10.1340 C   0  0  0  0  0  3  0  0  0  0  0  0
   -7.5470   38.0210   10.5800 C   0  0  0  0  0  3  0  0  0  0  0  0
   -1.9930   36.3310    5.6000 C   0  0  0  0  0  0  0  0  0  0  0  0
   -8.0390   35.4280   11.5530 C   0  0  0  0  0  3  0  0  0  0  0  0
   -2.1960   35.0500    6.0540 C   0  0  0  0  0  3  0  0  0  0  0  0
   -8.5150   37.7510   11.5350 C   0  0  0  0  0  0  0  0  0  0  0  0
   -5.8930   39.6130    8.7630 C   0  0  0  0  0  1  0  0  0  0  0  0
   -8.7480   36.5060   11.9980 C   0  0  0  0  0  0  0  0  0  0  0  0
   -1.2620   38.1470    4.5730 C   0  0  0  0  0  2  0  0  0  0  0  0
  -10.1480   37.8760   13.0260 C   0  0  0  0  0  2  0  0  0  0  0  0
   -3.3940   33.5720    7.4800 O   0  0  0  0  0  0  0  0  0  0  0  0
   -2.6840   32.4420    7.1040 C   0  0  0  0  0  1  0  0  0  0  0  0
  1 13  1  0  0  0  0
  2 18  1  0  0  0  0
  3 25  1  0  0  0  0
  4 25  1  0  0  0  0
  5 22  1  0  0  0  0
  5  6  1  0  0  0  0
  6 10  2  0  0  0  0
  7  6  1  0  0  0  0
  7 14  1  0  0  0  0
  8  7  2  0  0  0  0
  9 12  2  0  0  0  0
  9  8  1  0  0  0  0
 10 11  1  0  0  0  0
 10 17  1  0  0  0  0
 11 16  1  6  0  0  0
 11 19  1  0  0  0  0
 12  5  1  0  0  0  0
 13  9  1  0  0  0  0
 14 16  2  0  0  0  0
 15 26  1  0  0  0  0
 15  8  1  0  0  0  0
 17 21  2  0  0  0  0
 18 20  1  0  0  0  0
 18 13  2  0  0  0  0
 19 23  2  0  0  0  0
 20 15  2  0  0  0  0
 21 23  1  0  0  0  0
 21  3  1  0  0  0  0
 23  4  1  0  0  0  0
 24  2  1  0  0  0  0
 24  1  1  0  0  0  0
 27 26  1  0  0  0  0
M  END
>  <MODEL>
9

>  <REMARK>
 VINA RESULT:    -7.921     38.526     39.231
 INTER + INTRA:          -8.497
 INTER:                  -8.391
 INTRA:                  -0.106
 UNBOUND:                -0.112
  1 active torsions:
  status: ('A' for Active; 'I' for Inactive)
    1  A    between atoms: O3_3  and  C10_16 

>  <TORSDO>
F 1

$$$$
./Quelirubina.pdbqt
 OpenBabel10282519553D

 27 32  0  0  0  0  0  0  0  0999 V2000
  -32.3230   21.8850  -15.2000 O   0  0  0  0  0  0  0  0  0  0  0  0
  -31.4840   20.4440  -16.6810 O   0  0  0  0  0  0  0  0  0  0  0  0
  -41.6070   23.4570  -12.7970 O   0  0  0  0  0  0  0  0  0  0  0  0
  -42.9650   22.1070  -13.9580 O   0  0  0  0  0  0  0  0  0  0  0  0
  -36.4520   22.3450  -14.2710 N   0  0  0  0  0  0  0  0  0  0  0  0
  -37.4390   21.6000  -14.9270 C   0  0  0  0  0  0  0  0  0  0  0  0
  -37.0060   20.6340  -15.9250 C   0  0  0  0  0  0  0  0  0  0  0  0
  -35.6020   20.4680  -16.2430 C   0  0  0  0  0  0  0  0  0  0  0  0
  -34.6930   21.2980  -15.5380 C   0  0  0  0  0  0  0  0  0  0  0  0
  -38.8790   21.7350  -14.6650 C   0  0  0  0  0  0  0  0  0  0  0  0
  -39.7950   20.8950  -15.3850 C   0  0  0  0  0  0  0  0  0  0  0  0
  -35.1380   22.1960  -14.5690 C   0  0  0  0  0  3  0  0  0  0  0  0
  -33.3270   21.2080  -15.7760 C   0  0  0  0  0  0  0  0  0  0  0  0
  -37.9820   19.8450  -16.5760 C   0  0  0  0  0  2  0  0  0  0  0  0
  -35.0210   19.5460  -17.2030 C   0  0  0  0  0  0  0  0  0  0  0  0
  -39.3200   19.9650  -16.3170 C   0  0  0  0  0  3  0  0  0  0  0  0
  -39.4920   22.6520  -13.7410 C   0  0  0  0  0  3  0  0  0  0  0  0
  -32.8160   20.3370  -16.6740 C   0  0  0  0  0  0  0  0  0  0  0  0
  -41.1990   20.9600  -15.2030 C   0  0  0  0  0  3  0  0  0  0  0  0
  -33.6140   19.4880  -17.4010 C   0  0  0  0  0  3  0  0  0  0  0  0
  -40.8700   22.6750  -13.5980 C   0  0  0  0  0  0  0  0  0  0  0  0
  -36.6970   23.3770  -13.2550 C   0  0  0  0  0  1  0  0  0  0  0  0
  -41.6850   21.8630  -14.3020 C   0  0  0  0  0  0  0  0  0  0  0  0
  -31.1240   21.4310  -15.7650 C   0  0  0  0  0  2  0  0  0  0  0  0
  -42.9550   23.1190  -12.9980 C   0  0  0  0  0  2  0  0  0  0  0  0
  -35.8000   18.7150  -17.9290 O   0  0  0  0  0  0  0  0  0  0  0  0
  -35.4070   17.5390  -18.5480 C   0  0  0  0  0  1  0  0  0  0  0  0
  2 18  1  0  0  0  0
  2 24  1  0  0  0  0
  4 25  1  0  0  0  0
  5 22  1  0  0  0  0
  6 10  2  0  0  0  0
  6  5  1  0  0  0  0
  7  6  1  0  0  0  0
  8  7  2  0  0  0  0
  8  9  1  0  0  0  0
  9 12  2  0  0  0  0
 10 17  1  0  0  0  0
 11 19  1  0  0  0  0
 11 10  1  0  0  0  0
 12  5  1  0  0  0  0
 13  9  1  0  0  0  0
 13  1  1  0  0  0  0
 14 16  1  0  0  0  0
 14  7  1  0  0  0  0
 15  8  1  0  0  0  0
 16 11  2  0  0  0  0
 17 21  2  0  0  0  0
 18 13  2  0  0  0  0
 19 23  2  0  0  0  0
 20 15  2  0  0  0  0
 20 18  1  0  0  0  0
 21  3  1  0  0  0  0
 23  4  1  0  0  0  0
 23 21  1  0  0  0  0
 24  1  1  0  0  0  0
 25  3  1  0  0  0  0
 26 15  1  0  0  0  0
 27 26  1  0  0  0  0
M  END
>  <MODEL>
10

>  <REMARK>
 VINA RESULT:    -7.885      3.241      5.928
 INTER + INTRA:          -8.459
 INTER:                  -8.346
 INTRA:                  -0.113
 UNBOUND:                -0.112
  1 active torsions:
  status: ('A' for Active; 'I' for Inactive)
    1  A    between atoms: O3_3  and  C10_16 

>  <TORSDO>
F 1

$$$$
./Quelirubina.pdbqt
 OpenBabel10282519553D

 27 32  0  0  0  0  0  0  0  0999 V2000
   -9.8530   38.6940   11.8410 O   0  0  0  0  0  0  0  0  0  0  0  0
   -9.3680   36.8700   13.0300 O   0  0  0  0  0  0  0  0  0  0  0  0
   -5.1980   42.3740    4.1450 O   0  0  0  0  0  0  0  0  0  0  0  0
   -3.4350   41.1030    3.6030 O   0  0  0  0  0  0  0  0  0  0  0  0
   -7.6830   40.0730    8.4470 N   0  0  0  0  0  0  0  0  0  0  0  0
   -6.5350   39.4130    7.9920 C   0  0  0  0  0  0  0  0  0  0  0  0
   -6.1190   38.2130    8.7010 C   0  0  0  0  0  0  0  0  0  0  0  0
   -6.8550   37.7350    9.8540 C   0  0  0  0  0  0  0  0  0  0  0  0
   -7.9840   38.5010   10.2450 C   0  0  0  0  0  0  0  0  0  0  0  0
   -5.7350   39.8580    6.8420 C   0  0  0  0  0  0  0  0  0  0  0  0
   -4.5900   39.0810    6.4550 C   0  0  0  0  0  0  0  0  0  0  0  0
   -8.3710   39.6310    9.5280 C   0  0  0  0  0  3  0  0  0  0  0  0
   -8.7510   38.1170   11.3380 C   0  0  0  0  0  0  0  0  0  0  0  0
   -4.9840   37.5100    8.2390 C   0  0  0  0  0  3  0  0  0  0  0  0
   -6.5670   36.5570   10.6550 C   0  0  0  0  0  0  0  0  0  0  0  0
   -4.2500   37.9210    7.1590 C   0  0  0  0  0  3  0  0  0  0  0  0
   -5.9750   41.0290    6.0430 C   0  0  0  0  0  2  0  0  0  0  0  0
   -8.4590   37.0140   12.0610 C   0  0  0  0  0  0  0  0  0  0  0  0
   -3.7570   39.4360    5.3650 C   0  0  0  0  0  3  0  0  0  0  0  0
   -7.3910   36.2050   11.7590 C   0  0  0  0  0  3  0  0  0  0  0  0
   -5.1300   41.3320    4.9860 C   0  0  0  0  0  0  0  0  0  0  0  0
   -8.2420   41.3050    7.8750 C   0  0  0  0  0  1  0  0  0  0  0  0
   -4.0670   40.5660    4.6660 C   0  0  0  0  0  0  0  0  0  0  0  0
  -10.2710   37.9280   12.9370 C   0  0  0  0  0  2  0  0  0  0  0  0
   -4.1280   42.2580    3.2420 C   0  0  0  0  0  2  0  0  0  0  0  0
   -5.5130   35.7630   10.3690 O   0  0  0  0  0  0  0  0  0  0  0  0
   -4.5540   35.3050   11.2590 C   0  0  0  0  0  1  0  0  0  0  0  0
  1 24  1  0  0  0  0
  3 21  1  0  0  0  0
  4 23  1  0  0  0  0
  5 12  1  0  0  0  0
  6  5  1  0  0  0  0
  6  7  1  0  0  0  0
  7  8  2  0  0  0  0
  8  9  1  0  0  0  0
  8 15  1  0  0  0  0
  9 13  1  0  0  0  0
 10  6  2  0  0  0  0
 11 10  1  0  0  0  0
 11 16  1  0  0  0  0
 12  9  2  0  0  0  0
 13  1  1  0  0  0  0
 13 18  2  0  0  0  0
 14  7  1  0  0  0  0
 15 20  2  0  0  0  0
 16 14  2  0  0  0  0
 17 10  1  0  0  0  0
 18  2  1  0  0  0  0
 19 11  2  0  0  0  0
 20 18  1  0  0  0  0
 21 17  1  0  0  0  0
 22  5  1  0  0  0  0
 23 21  2  0  0  0  0
 23 19  1  0  0  0  0
 24  2  1  0  0  0  0
 25  4  1  0  0  0  0
 25  3  1  0  0  0  0
 26 15  1  0  0  0  0
 26 27  1  0  0  0  0
M  END
>  <MODEL>
11

>  <REMARK>
 VINA RESULT:    -7.868     38.626     39.338
 INTER + INTRA:          -8.441
 INTER:                  -8.316
 INTRA:                  -0.125
 UNBOUND:                -0.112
  1 active torsions:
  status: ('A' for Active; 'I' for Inactive)
    1  A    between atoms: O3_3  and  C10_16 

>  <TORSDO>
F 1

$$$$
./Quelirubina.pdbqt
 OpenBabel10282519553D

 27 32  0  0  0  0  0  0  0  0999 V2000
  -19.1210    1.0470    9.6860 O   0  0  0  0  0  0  0  0  0  0  0  0
  -17.7800   -0.7350    9.7470 O   0  0  0  0  0  0  0  0  0  0  0  0
  -26.0850    3.6610   15.9390 O   0  0  0  0  0  0  0  0  0  0  0  0
  -26.2350    2.1880   17.6190 O   0  0  0  0  0  0  0  0  0  0  0  0
  -22.0710    2.0150   12.5990 N   0  0  0  0  0  0  0  0  0  0  0  0
  -22.3170    1.1840   13.6990 C   0  0  0  0  0  0  0  0  0  0  0  0
  -21.5050   -0.0160   13.8350 C   0  0  0  0  0  0  0  0  0  0  0  0
  -20.4960   -0.3490   12.8500 C   0  0  0  0  0  0  0  0  0  0  0  0
  -20.3560    0.5490   11.7600 C   0  0  0  0  0  0  0  0  0  0  0  0
  -23.3380    1.4560   14.7200 C   0  0  0  0  0  0  0  0  0  0  0  0
  -23.4780    0.5410   15.8180 C   0  0  0  0  0  0  0  0  0  0  0  0
  -21.1310    1.7040   11.6730 C   0  0  0  0  0  3  0  0  0  0  0  0
  -19.4120    0.3110   10.7680 C   0  0  0  0  0  0  0  0  0  0  0  0
  -21.7110   -0.8520   14.9560 C   0  0  0  0  0  3  0  0  0  0  0  0
  -19.6110   -1.5010   12.8540 C   0  0  0  0  0  0  0  0  0  0  0  0
  -22.6540   -0.5860   15.9110 C   0  0  0  0  0  3  0  0  0  0  0  0
  -24.2470    2.5710   14.7370 C   0  0  0  0  0  2  0  0  0  0  0  0
  -18.6000   -0.7680   10.8020 C   0  0  0  0  0  0  0  0  0  0  0  0
  -24.4390    0.7190   16.8450 C   0  0  0  0  0  3  0  0  0  0  0  0
  -18.6550   -1.6910   11.8180 C   0  0  0  0  0  3  0  0  0  0  0  0
  -25.1680    2.6990   15.7650 C   0  0  0  0  0  0  0  0  0  0  0  0
  -22.7990    3.2510   12.2840 C   0  0  0  0  0  1  0  0  0  0  0  0
  -25.2570    1.8080   16.7730 C   0  0  0  0  0  0  0  0  0  0  0  0
  -18.0860    0.4000    8.9980 C   0  0  0  0  0  2  0  0  0  0  0  0
  -26.7870    3.3680   17.1200 C   0  0  0  0  0  2  0  0  0  0  0  0
  -19.6660   -2.4180   13.8440 O   0  0  0  0  0  0  0  0  0  0  0  0
  -18.7130   -3.3800   14.1370 C   0  0  0  0  0  1  0  0  0  0  0  0
  1 13  1  0  0  0  0
  2 18  1  0  0  0  0
  3 25  1  0  0  0  0
  5  6  1  0  0  0  0
  6  7  1  0  0  0  0
  6 10  2  0  0  0  0
  7 14  1  0  0  0  0
  8 15  1  0  0  0  0
  8  7  2  0  0  0  0
  9  8  1  0  0  0  0
 10 17  1  0  0  0  0
 10 11  1  0  0  0  0
 11 16  1  0  0  0  0
 11 19  2  0  0  0  0
 12  9  2  0  0  0  0
 12  5  1  0  0  0  0
 13 18  2  0  0  0  0
 13  9  1  0  0  0  0
 14 16  2  0  0  0  0
 15 26  1  0  0  0  0
 17 21  1  0  0  0  0
 18 20  1  0  0  0  0
 20 15  2  0  0  0  0
 21  3  1  0  0  0  0
 21 23  2  0  0  0  0
 22  5  1  0  0  0  0
 23 19  1  0  0  0  0
 23  4  1  0  0  0  0
 24  1  1  0  0  0  0
 24  2  1  0  0  0  0
 25  4  1  0  0  0  0
 26 27  1  0  0  0  0
M  END
>  <MODEL>
12

>  <REMARK>
 VINA RESULT:    -7.780     34.732     37.313
 INTER + INTRA:          -8.348
 INTER:                  -8.240
 INTRA:                  -0.108
 UNBOUND:                -0.112
  1 active torsions:
  status: ('A' for Active; 'I' for Inactive)
    1  A    between atoms: O3_3  and  C10_16 

>  <TORSDO>
F 1

$$$$
./Quelirubina.pdbqt
 OpenBabel10282519553D

 27 32  0  0  0  0  0  0  0  0999 V2000
   -6.2490   42.1020    4.3550 O   0  0  0  0  0  0  0  0  0  0  0  0
   -4.3050   41.4920    3.4450 O   0  0  0  0  0  0  0  0  0  0  0  0
  -10.5740   38.6850   12.3590 O   0  0  0  0  0  0  0  0  0  0  0  0
   -9.3260   37.0900   13.3140 O   0  0  0  0  0  0  0  0  0  0  0  0
   -7.9110   40.4890    7.9280 N   0  0  0  0  0  0  0  0  0  0  0  0
   -7.2750   39.4620    8.6350 C   0  0  0  0  0  0  0  0  0  0  0  0
   -6.0020   38.9770    8.1240 C   0  0  0  0  0  0  0  0  0  0  0  0
   -5.4270   39.5240    6.9120 C   0  0  0  0  0  0  0  0  0  0  0  0
   -6.1750   40.5400    6.2610 C   0  0  0  0  0  0  0  0  0  0  0  0
   -7.8150   38.8520    9.8580 C   0  0  0  0  0  0  0  0  0  0  0  0
   -7.0560   37.8210   10.5090 C   0  0  0  0  0  0  0  0  0  0  0  0
   -7.3790   41.0000    6.7900 C   0  0  0  0  0  3  0  0  0  0  0  0
   -5.7010   41.1240    5.0930 C   0  0  0  0  0  0  0  0  0  0  0  0
   -5.3240   37.9650    8.8400 C   0  0  0  0  0  3  0  0  0  0  0  0
   -4.1710   39.1490    6.2870 C   0  0  0  0  0  0  0  0  0  0  0  0
   -5.8250   37.4100    9.9870 C   0  0  0  0  0  3  0  0  0  0  0  0
   -9.0650   39.1790   10.4900 C   0  0  0  0  0  2  0  0  0  0  0  0
   -4.5250   40.7560    4.5380 C   0  0  0  0  0  0  0  0  0  0  0  0
   -7.5000   37.1720   11.6880 C   0  0  0  0  0  3  0  0  0  0  0  0
   -3.7280   39.7870    5.0960 C   0  0  0  0  0  3  0  0  0  0  0  0
   -9.4530   38.5160   11.6440 C   0  0  0  0  0  0  0  0  0  0  0  0
   -9.2060   41.0890    8.2760 C   0  0  0  0  0  1  0  0  0  0  0  0
   -8.7000   37.5530   12.2140 C   0  0  0  0  0  0  0  0  0  0  0  0
   -5.3870   42.3560    3.2800 C   0  0  0  0  0  2  0  0  0  0  0  0
  -10.5260   37.7900   13.4400 C   0  0  0  0  0  2  0  0  0  0  0  0
   -3.3860   38.1900    6.8250 O   0  0  0  0  0  0  0  0  0  0  0  0
   -2.5880   37.2900    6.1370 C   0  0  0  0  0  1  0  0  0  0  0  0
  1 13  1  0  0  0  0
  2 18  1  0  0  0  0
  3 25  1  0  0  0  0
  4 25  1  0  0  0  0
  5 22  1  0  0  0  0
  5  6  1  0  0  0  0
  6 10  2  0  0  0  0
  7  6  1  0  0  0  0
  7 14  1  0  0  0  0
  8  7  2  0  0  0  0
  9 12  2  0  0  0  0
  9  8  1  0  0  0  0
 10 17  1  0  0  0  0
 10 11  1  0  0  0  0
 11 19  2  0  0  0  0
 12  5  1  0  0  0  0
 13  9  1  0  0  0  0
 14 16  2  0  0  0  0
 15 26  1  0  0  0  0
 15  8  1  0  0  0  0
 16 11  1  0  0  0  0
 17 21  1  0  0  0  0
 18 13  2  0  0  0  0
 18 20  1  0  0  0  0
 19 23  1  0  0  0  0
 20 15  2  0  0  0  0
 21 23  2  0  0  0  0
 21  3  1  0  0  0  0
 23  4  1  0  0  0  0
 24  2  1  0  0  0  0
 24  1  1  0  0  0  0
 27 26  1  0  0  0  0
M  END
>  <MODEL>
13

>  <REMARK>
 VINA RESULT:    -7.762     38.168     39.109
 INTER + INTRA:          -8.328
 INTER:                  -8.211
 INTRA:                  -0.117
 UNBOUND:                -0.112
  1 active torsions:
  status: ('A' for Active; 'I' for Inactive)
    1  A    between atoms: O3_3  and  C10_16 

>  <TORSDO>
F 1

$$$$
./Quelirubina.pdbqt
 OpenBabel10282519553D

 27 32  0  0  0  0  0  0  0  0999 V2000
  -40.7930   32.0550    4.4130 O   0  0  0  0  0  0  0  0  0  0  0  0
  -41.1180   33.5090    2.7520 O   0  0  0  0  0  0  0  0  0  0  0  0
  -42.9760   22.5920    4.7540 O   0  0  0  0  0  0  0  0  0  0  0  0
  -43.9100   21.9240    2.8310 O   0  0  0  0  0  0  0  0  0  0  0  0
  -41.7830   27.9160    4.2960 N   0  0  0  0  0  0  0  0  0  0  0  0
  -42.4020   27.3400    3.1800 C   0  0  0  0  0  0  0  0  0  0  0  0
  -42.6730   28.2010    2.0390 C   0  0  0  0  0  0  0  0  0  0  0  0
  -42.3350   29.6090    2.0690 C   0  0  0  0  0  0  0  0  0  0  0  0
  -41.7390   30.0900    3.2640 C   0  0  0  0  0  0  0  0  0  0  0  0
  -42.7880   25.9250    3.0960 C   0  0  0  0  0  0  0  0  0  0  0  0
  -43.3950   25.4450    1.8850 C   0  0  0  0  0  0  0  0  0  0  0  0
  -41.4690   29.2340    4.3300 C   0  0  0  0  0  3  0  0  0  0  0  0
  -41.3800   31.4270    3.3830 C   0  0  0  0  0  0  0  0  0  0  0  0
  -43.2660   27.6350    0.8870 C   0  0  0  0  0  2  0  0  0  0  0  0
  -42.5370   30.5850    1.0120 C   0  0  0  0  0  0  0  0  0  0  0  0
  -43.6100   26.3130    0.8090 C   0  0  0  0  0  3  0  0  0  0  0  0
  -42.6270   24.9370    4.1290 C   0  0  0  0  0  3  0  0  0  0  0  0
  -41.5770   32.3100    2.3790 C   0  0  0  0  0  0  0  0  0  0  0  0
  -43.8050   24.0990    1.7160 C   0  0  0  0  0  3  0  0  0  0  0  0
  -42.1410   31.9400    1.1830 C   0  0  0  0  0  3  0  0  0  0  0  0
  -43.0430   23.6330    3.9120 C   0  0  0  0  0  0  0  0  0  0  0  0
  -41.4510   27.2150    5.5440 C   0  0  0  0  0  1  0  0  0  0  0  0
  -43.6090   23.2360    2.7540 C   0  0  0  0  0  0  0  0  0  0  0  0
  -40.6210   33.3970    4.0490 C   0  0  0  0  0  2  0  0  0  0  0  0
  -43.5200   21.4780    4.0940 C   0  0  0  0  0  2  0  0  0  0  0  0
  -43.1000   30.2300   -0.1630 O   0  0  0  0  0  0  0  0  0  0  0  0
  -44.0360   30.9530   -0.8860 C   0  0  0  0  0  1  0  0  0  0  0  0
  2 24  1  0  0  0  0
  4 25  1  0  0  0  0
  5 12  1  0  0  0  0
  5 22  1  0  0  0  0
  6  5  1  0  0  0  0
  7  8  2  0  0  0  0
  7  6  1  0  0  0  0
  8  9  1  0  0  0  0
  9 13  1  0  0  0  0
  9 12  2  0  0  0  0
 10  6  2  0  0  0  0
 10 17  1  0  0  0  0
 11 10  1  0  0  0  0
 13  1  1  0  0  0  0
 14  7  1  0  0  0  0
 15 20  2  0  0  0  0
 15  8  1  0  0  0  0
 16 14  1  0  0  0  0
 16 11  2  0  0  0  0
 18  2  1  0  0  0  0
 18 13  2  0  0  0  0
 19 11  1  0  0  0  0
 19 23  2  0  0  0  0
 20 18  1  0  0  0  0
 21 17  2  0  0  0  0
 21  3  1  0  0  0  0
 23  4  1  0  0  0  0
 23 21  1  0  0  0  0
 24  1  1  0  0  0  0
 25  3  1  0  0  0  0
 26 15  1  0  0  0  0
 27 26  1  0  0  0  0
M  END
>  <MODEL>
14

>  <REMARK>
 VINA RESULT:    -7.682     18.845     20.281
 INTER + INTRA:          -8.243
 INTER:                  -8.120
 INTRA:                  -0.123
 UNBOUND:                -0.112
  1 active torsions:
  status: ('A' for Active; 'I' for Inactive)
    1  A    between atoms: O3_3  and  C10_16 

>  <TORSDO>
F 1

$$$$
./Quelirubina.pdbqt
 OpenBabel10282519553D

 27 32  0  0  0  0  0  0  0  0999 V2000
  -43.7240   25.3230   -5.8660 O   0  0  0  0  0  0  0  0  0  0  0  0
  -43.4620   23.1410   -5.4820 O   0  0  0  0  0  0  0  0  0  0  0  0
  -43.9920   32.6520    0.5100 O   0  0  0  0  0  0  0  0  0  0  0  0
  -43.7260   31.8940    2.6010 O   0  0  0  0  0  0  0  0  0  0  0  0
  -43.7420   28.3670   -2.8890 N   0  0  0  0  0  0  0  0  0  0  0  0
  -43.6180   28.0630   -1.5270 C   0  0  0  0  0  0  0  0  0  0  0  0
  -43.4520   26.6650   -1.1590 C   0  0  0  0  0  0  0  0  0  0  0  0
  -43.4410   25.6240   -2.1670 C   0  0  0  0  0  0  0  0  0  0  0  0
  -43.6050   26.0450   -3.5120 C   0  0  0  0  0  0  0  0  0  0  0  0
  -43.6420   29.0690   -0.4570 C   0  0  0  0  0  0  0  0  0  0  0  0
  -43.4800   28.6360    0.9030 C   0  0  0  0  0  0  0  0  0  0  0  0
  -43.7360   27.3950   -3.8340 C   0  0  0  0  0  3  0  0  0  0  0  0
  -43.6060   25.1170   -4.5460 C   0  0  0  0  0  0  0  0  0  0  0  0
  -43.2910   26.3370    0.2060 C   0  0  0  0  0  3  0  0  0  0  0  0
  -43.2780   24.1960   -1.9540 C   0  0  0  0  0  0  0  0  0  0  0  0
  -43.3000   27.2800    1.1980 C   0  0  0  0  0  3  0  0  0  0  0  0
  -43.8250   30.4860   -0.6270 C   0  0  0  0  0  2  0  0  0  0  0  0
  -43.4480   23.7950   -4.3160 C   0  0  0  0  0  0  0  0  0  0  0  0
  -43.4970   29.5330    2.0000 C   0  0  0  0  0  3  0  0  0  0  0  0
  -43.2760   23.2900   -3.0500 C   0  0  0  0  0  3  0  0  0  0  0  0
  -43.8320   31.3220    0.4790 C   0  0  0  0  0  0  0  0  0  0  0  0
  -43.9380   29.7110   -3.4480 C   0  0  0  0  0  1  0  0  0  0  0  0
  -43.6760   30.8600    1.7370 C   0  0  0  0  0  0  0  0  0  0  0  0
  -43.6500   24.0760   -6.4990 C   0  0  0  0  0  2  0  0  0  0  0  0
  -43.9260   33.0550    1.8540 C   0  0  0  0  0  2  0  0  0  0  0  0
  -43.1190   23.6920   -0.7120 O   0  0  0  0  0  0  0  0  0  0  0  0
  -43.8120   22.6300   -0.1530 C   0  0  0  0  0  1  0  0  0  0  0  0
  1 13  1  0  0  0  0
  2 18  1  0  0  0  0
  3 25  1  0  0  0  0
  5  6  1  0  0  0  0
  6  7  1  0  0  0  0
  6 10  2  0  0  0  0
  7 14  1  0  0  0  0
  8 15  1  0  0  0  0
  8  7  2  0  0  0  0
  9  8  1  0  0  0  0
 10 11  1  0  0  0  0
 11 16  1  0  0  0  0
 11 19  2  0  0  0  0
 12  9  2  0  0  0  0
 12  5  1  0  0  0  0
 13 18  2  0  0  0  0
 13  9  1  0  0  0  0
 14 16  2  0  0  0  0
 15 26  1  0  0  0  0
 17 10  1  0  0  0  0
 17 21  1  0  0  0  0
 18 20  1  0  0  0  0
 20 15  2  0  0  0  0
 21  3  1  0  0  0  0
 21 23  2  0  0  0  0
 22  5  1  0  0  0  0
 23 19  1  0  0  0  0
 23  4  1  0  0  0  0
 24  1  1  0  0  0  0
 24  2  1  0  0  0  0
 25  4  1  0  0  0  0
 26 27  1  0  0  0  0
M  END
>  <MODEL>
15

>  <REMARK>
 VINA RESULT:    -7.656     15.197     18.007
 INTER + INTRA:          -8.216
 INTER:                  -8.092
 INTRA:                  -0.125
 UNBOUND:                -0.112
  1 active torsions:
  status: ('A' for Active; 'I' for Inactive)
    1  A    between atoms: O3_3  and  C10_16 

>  <TORSDO>
F 1

$$$$
./Quelirubina.pdbqt
 OpenBabel10282519553D

 27 32  0  0  0  0  0  0  0  0999 V2000
   -8.7820   36.6190   12.3600 O   0  0  0  0  0  0  0  0  0  0  0  0
  -10.0360   38.4630   12.4140 O   0  0  0  0  0  0  0  0  0  0  0  0
   -1.3820   34.4430    6.4490 O   0  0  0  0  0  0  0  0  0  0  0  0
   -0.9930   36.1210    5.0160 O   0  0  0  0  0  0  0  0  0  0  0  0
   -5.5320   35.9240    9.6990 N   0  0  0  0  0  0  0  0  0  0  0  0
   -5.1730   36.8570    8.7190 C   0  0  0  0  0  0  0  0  0  0  0  0
   -5.9330   38.0970    8.6550 C   0  0  0  0  0  0  0  0  0  0  0  0
   -7.0370   38.3430    9.5600 C   0  0  0  0  0  0  0  0  0  0  0  0
   -7.3310   37.3130   10.4920 C   0  0  0  0  0  0  0  0  0  0  0  0
   -4.0770   36.6590    7.7600 C   0  0  0  0  0  0  0  0  0  0  0  0
   -3.7880   37.7030    6.8160 C   0  0  0  0  0  0  0  0  0  0  0  0
   -6.5670   36.1480   10.5450 C   0  0  0  0  0  3  0  0  0  0  0  0
   -8.3720   37.4620   11.4000 C   0  0  0  0  0  0  0  0  0  0  0  0
   -5.5670   39.0690    7.6970 C   0  0  0  0  0  2  0  0  0  0  0  0
   -7.8770   39.5260    9.6210 C   0  0  0  0  0  0  0  0  0  0  0  0
   -4.5360   38.8850    6.8160 C   0  0  0  0  0  3  0  0  0  0  0  0
   -3.2420   35.4940    7.6540 C   0  0  0  0  0  3  0  0  0  0  0  0
   -9.1330   38.5770   11.4350 C   0  0  0  0  0  0  0  0  0  0  0  0
   -2.7560   37.5970    5.8500 C   0  0  0  0  0  3  0  0  0  0  0  0
   -8.9240   39.6300   10.5780 C   0  0  0  0  0  3  0  0  0  0  0  0
   -2.2440   35.4410    6.6920 C   0  0  0  0  0  0  0  0  0  0  0  0
   -4.8980   34.6140    9.9020 C   0  0  0  0  0  1  0  0  0  0  0  0
   -2.0160   36.4510    5.8290 C   0  0  0  0  0  0  0  0  0  0  0  0
   -9.8580   37.2220   13.0240 C   0  0  0  0  0  2  0  0  0  0  0  0
   -0.5610   34.8450    5.3820 C   0  0  0  0  0  2  0  0  0  0  0  0
   -7.6830   40.5610    8.7760 O   0  0  0  0  0  0  0  0  0  0  0  0
   -8.6000   41.0780    7.8740 C   0  0  0  0  0  1  0  0  0  0  0  0
  1 24  1  0  0  0  0
  2 24  1  0  0  0  0
  3 21  1  0  0  0  0
  4 25  1  0  0  0  0
  4 23  1  0  0  0  0
  5 22  1  0  0  0  0
  5 12  1  0  0  0  0
  6  5  1  0  0  0  0
  7  6  1  0  0  0  0
  7  8  2  0  0  0  0
  8 15  1  0  0  0  0
  8  9  1  0  0  0  0
  9 12  2  0  0  0  0
  9 13  1  0  0  0  0
 10  6  2  0  0  0  0
 11 10  1  0  0  0  0
 13 18  2  0  0  0  0
 13  1  1  0  0  0  0
 14  7  1  0  0  0  0
 15 20  2  0  0  0  0
 16 11  2  0  0  0  0
 16 14  1  0  0  0  0
 17 10  1  0  0  0  0
 18  2  1  0  0  0  0
 19 11  1  0  0  0  0
 20 18  1  0  0  0  0
 21 17  2  0  0  0  0
 23 19  2  0  0  0  0
 23 21  1  0  0  0  0
 25  3  1  0  0  0  0
 26 15  1  0  0  0  0
 27 26  1  0  0  0  0
M  END
>  <MODEL>
16

>  <REMARK>
 VINA RESULT:    -7.648     38.395     39.434
 INTER + INTRA:          -8.207
 INTER:                  -8.101
 INTRA:                  -0.106
 UNBOUND:                -0.112
  1 active torsions:
  status: ('A' for Active; 'I' for Inactive)
    1  A    between atoms: O3_3  and  C10_16 

>  <TORSDO>
F 1

$$$$
./Quelirubina.pdbqt
 OpenBabel10282519553D

 27 32  0  0  0  0  0  0  0  0999 V2000
   -0.0350   35.1070    5.9350 O   0  0  0  0  0  0  0  0  0  0  0  0
    0.2910   32.9090    5.7400 O   0  0  0  0  0  0  0  0  0  0  0  0
   -7.5470   39.8350    9.8910 O   0  0  0  0  0  0  0  0  0  0  0  0
   -9.0640   38.3900   10.6830 O   0  0  0  0  0  0  0  0  0  0  0  0
   -3.4020   36.9470    7.7800 N   0  0  0  0  0  0  0  0  0  0  0  0
   -4.4590   36.1900    8.3010 C   0  0  0  0  0  0  0  0  0  0  0  0
   -4.3570   34.7410    8.2180 C   0  0  0  0  0  0  0  0  0  0  0  0
   -3.2120   34.1080    7.5960 C   0  0  0  0  0  0  0  0  0  0  0  0
   -2.2170   34.9740    7.0750 C   0  0  0  0  0  0  0  0  0  0  0  0
   -5.6550   36.7730    8.9260 C   0  0  0  0  0  0  0  0  0  0  0  0
   -6.6610   35.8900    9.4470 C   0  0  0  0  0  0  0  0  0  0  0  0
   -2.3310   36.3580    7.1930 C   0  0  0  0  0  3  0  0  0  0  0  0
   -1.0830   34.4560    6.4620 C   0  0  0  0  0  0  0  0  0  0  0  0
   -5.3950   33.9550    8.7680 C   0  0  0  0  0  3  0  0  0  0  0  0
   -2.9690   32.6830    7.4460 C   0  0  0  0  0  0  0  0  0  0  0  0
   -6.5000   34.5030    9.3620 C   0  0  0  0  0  3  0  0  0  0  0  0
   -5.9410   38.1750    9.0690 C   0  0  0  0  0  2  0  0  0  0  0  0
   -0.8830   33.1250    6.3420 C   0  0  0  0  0  0  0  0  0  0  0  0
   -7.8490   36.3610   10.0590 C   0  0  0  0  0  3  0  0  0  0  0  0
   -1.7850   32.2060    6.8190 C   0  0  0  0  0  3  0  0  0  0  0  0
   -7.1180   38.5840    9.6770 C   0  0  0  0  0  0  0  0  0  0  0  0
   -3.3360   38.4150    7.7530 C   0  0  0  0  0  1  0  0  0  0  0  0
   -8.0300   37.7100   10.1490 C   0  0  0  0  0  0  0  0  0  0  0  0
    0.8620   34.1470    5.4490 C   0  0  0  0  0  2  0  0  0  0  0  0
   -8.7910   39.7510   10.5380 C   0  0  0  0  0  2  0  0  0  0  0  0
   -3.8570   31.7740    7.9050 O   0  0  0  0  0  0  0  0  0  0  0  0
   -3.8390   30.4080    7.6730 C   0  0  0  0  0  1  0  0  0  0  0  0
  1 13  1  0  0  0  0
  2 18  1  0  0  0  0
  3 25  1  0  0  0  0
  5  6  1  0  0  0  0
  6 10  2  0  0  0  0
  7  6  1  0  0  0  0
  7 14  1  0  0  0  0
  8  7  2  0  0  0  0
  9 12  2  0  0  0  0
  9  8  1  0  0  0  0
 10 17  1  0  0  0  0
 10 11  1  0  0  0  0
 11 19  2  0  0  0  0
 12  5  1  0  0  0  0
 13  9  1  0  0  0  0
 14 16  2  0  0  0  0
 15  8  1  0  0  0  0
 15 26  1  0  0  0  0
 16 11  1  0  0  0  0
 17 21  1  0  0  0  0
 18 13  2  0  0  0  0
 18 20  1  0  0  0  0
 19 23  1  0  0  0  0
 20 15  2  0  0  0  0
 21  3  1  0  0  0  0
 21 23  2  0  0  0  0
 22  5  1  0  0  0  0
 23  4  1  0  0  0  0
 24  2  1  0  0  0  0
 24  1  1  0  0  0  0
 25  4  1  0  0  0  0
 27 26  1  0  0  0  0
M  END
>  <MODEL>
17

>  <REMARK>
 VINA RESULT:    -7.608     37.895     39.251
 INTER + INTRA:          -8.165
 INTER:                  -8.059
 INTRA:                  -0.107
 UNBOUND:                -0.112
  1 active torsions:
  status: ('A' for Active; 'I' for Inactive)
    1  A    between atoms: O3_3  and  C10_16 

>  <TORSDO>
F 1

$$$$
./Quelirubina.pdbqt
 OpenBabel10282519553D

 27 32  0  0  0  0  0  0  0  0999 V2000
  -33.0110   20.4210  -16.4940 O   0  0  0  0  0  0  0  0  0  0  0  0
  -31.6770   21.7520  -15.2990 O   0  0  0  0  0  0  0  0  0  0  0  0
  -42.7020   19.7340  -16.3100 O   0  0  0  0  0  0  0  0  0  0  0  0
  -43.5710   21.1770  -14.8330 O   0  0  0  0  0  0  0  0  0  0  0  0
  -37.2620   20.3520  -16.2780 N   0  0  0  0  0  0  0  0  0  0  0  0
  -37.9650   21.1680  -15.3850 C   0  0  0  0  0  0  0  0  0  0  0  0
  -37.1940   22.0720  -14.5450 C   0  0  0  0  0  0  0  0  0  0  0  0
  -35.7470   22.1050  -14.6160 C   0  0  0  0  0  0  0  0  0  0  0  0
  -35.1390   21.2110  -15.5350 C   0  0  0  0  0  0  0  0  0  0  0  0
  -39.4290   21.1680  -15.2510 C   0  0  0  0  0  0  0  0  0  0  0  0
  -40.0370   22.0720  -14.3150 C   0  0  0  0  0  0  0  0  0  0  0  0
  -35.9080   20.3760  -16.3440 C   0  0  0  0  0  3  0  0  0  0  0  0
  -33.7570   21.1740  -15.6730 C   0  0  0  0  0  0  0  0  0  0  0  0
  -37.8830   22.9320  -13.6590 C   0  0  0  0  0  3  0  0  0  0  0  0
  -34.8480   22.9520  -13.8510 C   0  0  0  0  0  0  0  0  0  0  0  0
  -39.2470   22.9370  -13.5490 C   0  0  0  0  0  3  0  0  0  0  0  0
  -40.3470   20.3290  -15.9720 C   0  0  0  0  0  2  0  0  0  0  0  0
  -32.9480   21.9780  -14.9490 C   0  0  0  0  0  0  0  0  0  0  0  0
  -41.4380   22.1370  -14.1140 C   0  0  0  0  0  3  0  0  0  0  0  0
  -33.4400   22.8800  -14.0380 C   0  0  0  0  0  3  0  0  0  0  0  0
  -41.7100   20.4320  -15.7390 C   0  0  0  0  0  0  0  0  0  0  0  0
  -37.8630   19.3660  -17.1870 C   0  0  0  0  0  1  0  0  0  0  0  0
  -42.2280   21.2990  -14.8460 C   0  0  0  0  0  0  0  0  0  0  0  0
  -31.6680   20.7550  -16.2730 C   0  0  0  0  0  2  0  0  0  0  0  0
  -43.9110   20.1880  -15.7560 C   0  0  0  0  0  2  0  0  0  0  0  0
  -35.3250   23.8340  -12.9470 O   0  0  0  0  0  0  0  0  0  0  0  0
  -34.6210   24.8630  -12.3420 C   0  0  0  0  0  1  0  0  0  0  0  0
  1 24  1  0  0  0  0
  1 13  1  0  0  0  0
  2 18  1  0  0  0  0
  3 25  1  0  0  0  0
  3 21  1  0  0  0  0
  5  6  1  0  0  0  0
  6 10  2  0  0  0  0
  6  7  1  0  0  0  0
  7 14  1  0  0  0  0
  8  7  2  0  0  0  0
  8 15  1  0  0  0  0
  9  8  1  0  0  0  0
 10 11  1  0  0  0  0
 11 19  2  0  0  0  0
 11 16  1  0  0  0  0
 12  5  1  0  0  0  0
 12  9  2  0  0  0  0
 13  9  1  0  0  0  0
 13 18  2  0  0  0  0
 14 16  2  0  0  0  0
 15 26  1  0  0  0  0
 17 21  1  0  0  0  0
 17 10  1  0  0  0  0
 18 20  1  0  0  0  0
 20 15  2  0  0  0  0
 21 23  2  0  0  0  0
 22  5  1  0  0  0  0
 23  4  1  0  0  0  0
 23 19  1  0  0  0  0
 24  2  1  0  0  0  0
 25  4  1  0  0  0  0
 26 27  1  0  0  0  0
M  END
>  <MODEL>
18

>  <REMARK>
 VINA RESULT:    -7.552      2.935      4.512
 INTER + INTRA:          -8.106
 INTER:                  -7.999
 INTRA:                  -0.107
 UNBOUND:                -0.112
  1 active torsions:
  status: ('A' for Active; 'I' for Inactive)
    1  A    between atoms: O3_3  and  C10_16 

>  <TORSDO>
F 1

$$$$
./Quelirubina.pdbqt
 OpenBabel10282519553D

 27 32  0  0  0  0  0  0  0  0999 V2000
   -2.0960   35.3930    6.8930 O   0  0  0  0  0  0  0  0  0  0  0  0
   -1.3670   36.7210    5.2550 O   0  0  0  0  0  0  0  0  0  0  0  0
   -9.5010   36.7770   13.0320 O   0  0  0  0  0  0  0  0  0  0  0  0
  -10.5250   38.7240   12.6110 O   0  0  0  0  0  0  0  0  0  0  0  0
   -5.4250   36.1960    9.4220 N   0  0  0  0  0  0  0  0  0  0  0  0
   -6.1590   37.3840    9.3140 C   0  0  0  0  0  0  0  0  0  0  0  0
   -5.7640   38.3320    8.2830 C   0  0  0  0  0  0  0  0  0  0  0  0
   -4.6350   38.0630    7.4160 C   0  0  0  0  0  0  0  0  0  0  0  0
   -3.9460   36.8420    7.6360 C   0  0  0  0  0  0  0  0  0  0  0  0
   -7.3000   37.7240   10.1760 C   0  0  0  0  0  0  0  0  0  0  0  0
   -7.9910   38.9630    9.9520 C   0  0  0  0  0  0  0  0  0  0  0  0
   -4.3650   35.9440    8.6150 C   0  0  0  0  0  3  0  0  0  0  0  0
   -2.8520   36.5000    6.8510 C   0  0  0  0  0  0  0  0  0  0  0  0
   -6.5110   39.5220    8.1330 C   0  0  0  0  0  2  0  0  0  0  0  0
   -4.1300   38.9040    6.3450 C   0  0  0  0  0  0  0  0  0  0  0  0
   -7.5820   39.8260    8.9290 C   0  0  0  0  0  3  0  0  0  0  0  0
   -7.8130   36.9290   11.2590 C   0  0  0  0  0  3  0  0  0  0  0  0
   -2.4080   37.3020    5.8590 C   0  0  0  0  0  0  0  0  0  0  0  0
   -9.0960   39.3760   10.7360 C   0  0  0  0  0  3  0  0  0  0  0  0
   -3.0110   38.5010    5.5650 C   0  0  0  0  0  3  0  0  0  0  0  0
   -8.8980   37.3780   11.9960 C   0  0  0  0  0  0  0  0  0  0  0  0
   -5.6600   35.1350   10.4100 C   0  0  0  0  0  1  0  0  0  0  0  0
   -9.5090   38.5530   11.7420 C   0  0  0  0  0  0  0  0  0  0  0  0
   -1.1230   35.5050    5.8910 C   0  0  0  0  0  2  0  0  0  0  0  0
  -10.5510   37.6100   13.4510 C   0  0  0  0  0  2  0  0  0  0  0  0
   -4.7120   40.0880    6.0570 O   0  0  0  0  0  0  0  0  0  0  0  0
   -4.9860   40.5920    4.7960 C   0  0  0  0  0  1  0  0  0  0  0  0
  2 18  1  0  0  0  0
  2 24  1  0  0  0  0
  3 25  1  0  0  0  0
  4 25  1  0  0  0  0
  5 22  1  0  0  0  0
  6  5  1  0  0  0  0
  6 10  2  0  0  0  0
  7  6  1  0  0  0  0
  8  9  1  0  0  0  0
  8  7  2  0  0  0  0
  9 12  2  0  0  0  0
 10 17  1  0  0  0  0
 11 10  1  0  0  0  0
 11 19  1  0  0  0  0
 12  5  1  0  0  0  0
 13  1  1  0  0  0  0
 13  9  1  0  0  0  0
 14  7  1  0  0  0  0
 14 16  1  0  0  0  0
 15  8  1  0  0  0  0
 16 11  2  0  0  0  0
 17 21  2  0  0  0  0
 18 13  2  0  0  0  0
 19 23  2  0  0  0  0
 20 18  1  0  0  0  0
 20 15  2  0  0  0  0
 21  3  1  0  0  0  0
 23 21  1  0  0  0  0
 23  4  1  0  0  0  0
 24  1  1  0  0  0  0
 26 15  1  0  0  0  0
 27 26  1  0  0  0  0
M  END
>  <MODEL>
19

>  <REMARK>
 VINA RESULT:    -7.541     38.831     39.190
 INTER + INTRA:          -8.094
 INTER:                  -7.970
 INTRA:                  -0.124
 UNBOUND:                -0.112
  1 active torsions:
  status: ('A' for Active; 'I' for Inactive)
    1  A    between atoms: O3_3  and  C10_16 

>  <TORSDO>
F 1

$$$$
./Quelirubina.pdbqt
 OpenBabel10282519553D

 27 32  0  0  0  0  0  0  0  0999 V2000
  -43.9740   33.0230    0.7470 O   0  0  0  0  0  0  0  0  0  0  0  0
  -43.9160   32.9080    2.9750 O   0  0  0  0  0  0  0  0  0  0  0  0
  -43.5130   25.8100   -5.7490 O   0  0  0  0  0  0  0  0  0  0  0  0
  -43.3430   23.8280   -4.7210 O   0  0  0  0  0  0  0  0  0  0  0  0
  -43.8200   29.6910   -1.8990 N   0  0  0  0  0  0  0  0  0  0  0  0
  -43.6830   28.3820   -1.4230 C   0  0  0  0  0  0  0  0  0  0  0  0
  -43.6240   28.1880    0.0180 C   0  0  0  0  0  0  0  0  0  0  0  0
  -43.6800   29.3170    0.9250 C   0  0  0  0  0  0  0  0  0  0  0  0
  -43.7880   30.6010    0.3300 C   0  0  0  0  0  0  0  0  0  0  0  0
  -43.6000   27.1980   -2.2910 C   0  0  0  0  0  0  0  0  0  0  0  0
  -43.4860   25.9020   -1.6820 C   0  0  0  0  0  0  0  0  0  0  0  0
  -43.8690   30.7500   -1.0540 C   0  0  0  0  0  3  0  0  0  0  0  0
  -43.8500   31.7410    1.1220 C   0  0  0  0  0  0  0  0  0  0  0  0
  -43.5200   26.8730    0.5230 C   0  0  0  0  0  3  0  0  0  0  0  0
  -43.6390   29.2810    2.3760 C   0  0  0  0  0  0  0  0  0  0  0  0
  -43.4580   25.7730   -0.2900 C   0  0  0  0  0  3  0  0  0  0  0  0
  -43.6130   27.1970   -3.7290 C   0  0  0  0  0  2  0  0  0  0  0  0
  -43.8140   31.6740    2.4700 C   0  0  0  0  0  0  0  0  0  0  0  0
  -43.3940   24.7070   -2.4390 C   0  0  0  0  0  3  0  0  0  0  0  0
  -43.7170   30.4790    3.1390 C   0  0  0  0  0  3  0  0  0  0  0  0
  -43.5210   26.0000   -4.4220 C   0  0  0  0  0  0  0  0  0  0  0  0
  -43.8760   30.0830   -3.3140 C   0  0  0  0  0  1  0  0  0  0  0  0
  -43.4150   24.8090   -3.7990 C   0  0  0  0  0  0  0  0  0  0  0  0
  -44.0060   33.8040    1.9100 C   0  0  0  0  0  2  0  0  0  0  0  0
  -43.4030   24.4290   -5.9790 C   0  0  0  0  0  2  0  0  0  0  0  0
  -43.5340   28.1100    3.0400 O   0  0  0  0  0  0  0  0  0  0  0  0
  -42.6740   27.8260    4.0900 C   0  0  0  0  0  1  0  0  0  0  0  0
  1 13  1  0  0  0  0
  1 24  1  0  0  0  0
  3 21  1  0  0  0  0
  4 23  1  0  0  0  0
  5  6  1  0  0  0  0
  5 12  1  0  0  0  0
  6  7  1  0  0  0  0
  7 14  1  0  0  0  0
  7  8  2  0  0  0  0
  8 15  1  0  0  0  0
  9  8  1  0  0  0  0
  9 13  1  0  0  0  0
 10 11  1  0  0  0  0
 10  6  2  0  0  0  0
 11 16  1  0  0  0  0
 12  9  2  0  0  0  0
 13 18  2  0  0  0  0
 15 26  1  0  0  0  0
 15 20  2  0  0  0  0
 16 14  2  0  0  0  0
 17 10  1  0  0  0  0
 18  2  1  0  0  0  0
 18 20  1  0  0  0  0
 19 11  2  0  0  0  0
 21 23  2  0  0  0  0
 21 17  1  0  0  0  0
 22  5  1  0  0  0  0
 23 19  1  0  0  0  0
 24  2  1  0  0  0  0
 25  3  1  0  0  0  0
 25  4  1  0  0  0  0
 26 27  1  0  0  0  0
M  END
>  <MODEL>
20

>  <REMARK>
 VINA RESULT:    -7.486     16.025     18.293
 INTER + INTRA:          -8.036
 INTER:                  -7.911
 INTRA:                  -0.125
 UNBOUND:                -0.112
  1 active torsions:
  status: ('A' for Active; 'I' for Inactive)
    1  A    between atoms: O3_3  and  C10_16 

>  <TORSDO>
F 1

$$$$
