./Rotenona.pdbqt
 OpenBabel10282519553D

 29 33  0  0  1  0  0  0  0  0999 V2000
  -35.6590   40.1730    9.9020 O   0  0  0  0  0  0  0  0  0  0  0  0
  -36.6070   37.5470    9.7560 O   0  0  0  0  0  0  0  0  0  0  0  0
  -37.5610   43.9940   11.6650 O   0  0  0  0  0  0  0  0  0  0  0  0
  -33.1800   39.6370   13.0870 O   0  0  0  0  0  0  0  0  0  0  0  0
  -34.3600   38.5680   11.3200 C   0  0  2  0  0  3  0  0  0  0  0  0
  -34.7130   39.0980    9.9310 C   0  0  1  0  0  3  0  0  0  0  0  0
  -35.7040   41.0190   10.9480 C   0  0  0  0  0  0  0  0  0  0  0  0
  -35.4660   37.7490   11.9010 C   0  0  0  0  0  0  0  0  0  0  0  0
  -34.0560   39.7330   12.2630 C   0  0  0  0  0  0  0  0  0  0  0  0
  -35.4250   38.0100    9.1200 C   0  0  0  0  0  2  0  0  0  0  0  0
  -36.5930   42.0770   10.8320 C   0  0  0  0  0  0  0  0  0  0  0  0
  -34.9120   40.8990   12.1060 C   0  0  0  0  0  0  0  0  0  0  0  0
  -37.5620   42.4690    9.7730 C   0  0  0  0  0  2  0  0  0  0  0  0
  -38.1750   43.7750   10.3570 C   0  0  2  0  0  3  0  0  0  0  0  0
  -36.6550   43.0110   11.8820 C   0  0  0  0  0  0  0  0  0  0  0  0
  -36.5140   37.2980   11.0910 C   0  0  0  0  0  0  0  0  0  0  0  0
  -34.9910   41.8640   13.1180 C   0  0  0  0  0  3  0  0  0  0  0  0
  -35.4830   37.4280   13.2600 C   0  0  0  0  0  3  0  0  0  0  0  0
  -35.8650   42.9410   13.0280 C   0  0  0  0  0  3  0  0  0  0  0  0
  -37.5880   36.5620   11.6030 C   0  0  0  0  0  3  0  0  0  0  0  0
  -36.5410   36.6970   13.7870 C   0  0  0  0  0  0  0  0  0  0  0  0
  -37.5930   36.2630   12.9610 C   0  0  0  0  0  0  0  0  0  0  0  0
  -37.8780   44.9690    9.4980 C   0  0  0  0  0  0  0  0  0  0  0  0
  -39.0040   45.9180    9.2910 C   0  0  0  0  0  1  0  0  0  0  0  0
  -36.6610   45.1480    8.9790 C   0  0  0  0  0  2  0  0  0  0  0  0
  -36.4700   36.3390   15.1120 O   0  0  0  0  0  0  0  0  0  0  0  0
  -36.1560   37.4490   15.9540 C   0  0  0  0  0  1  0  0  0  0  0  0
  -38.7100   35.6360   13.4370 O   0  0  0  0  0  0  0  0  0  0  0  0
  -39.7090   35.4020   12.4450 C   0  0  0  0  0  1  0  0  0  0  0  0
  1  6  1  0  0  0  0
  1  7  1  0  0  0  0
  2 16  1  0  0  0  0
  3 15  1  0  0  0  0
  5  8  1  1  0  0  0
  5  9  1  0  0  0  0
  6 10  1  6  0  0  0
  6  5  1  0  0  0  0
  7 12  1  0  0  0  0
  8 18  1  0  0  0  0
  9  4  2  0  0  0  0
 10  2  1  0  0  0  0
 11  7  2  0  0  0  0
 11 15  1  0  0  0  0
 12  9  1  0  0  0  0
 12 17  2  0  0  0  0
 13 14  1  0  0  0  0
 13 11  1  0  0  0  0
 14 23  1  6  0  0  0
 14  3  1  0  0  0  0
 15 19  2  0  0  0  0
 16 20  1  0  0  0  0
 16  8  2  0  0  0  0
 18 21  2  0  0  0  0
 19 17  1  0  0  0  0
 20 22  2  0  0  0  0
 21 26  1  0  0  0  0
 22 28  1  0  0  0  0
 22 21  1  0  0  0  0
 24 23  1  0  0  0  0
 25 23  2  0  0  0  0
 26 27  1  0  0  0  0
 29 28  1  0  0  0  0
M  END
>  <MODEL>
1

>  <REMARK>
 VINA RESULT:    -8.249      0.000      0.000
 INTER + INTRA:         -10.039
 INTER:                  -9.696
 INTRA:                  -0.343
 UNBOUND:                -0.343
  3 active torsions:
  status: ('A' for Active; 'I' for Inactive)
    1  A    between atoms: O5_5  and  C18_24 
    2  A    between atoms: O6_6  and  C19_25 
    3  A    between atoms: C10_16  and  C16_22 

>  <TORSDO>
F 3

$$$$
./Rotenona.pdbqt
 OpenBabel10282519553D

 29 33  0  0  1  0  0  0  0  0999 V2000
  -35.4840   22.6370  -15.0610 O   0  0  0  0  0  0  0  0  0  0  0  0
  -36.2210   23.7020  -17.5390 O   0  0  0  0  0  0  0  0  0  0  0  0
  -34.2530   24.6980  -11.1170 O   0  0  0  0  0  0  0  0  0  0  0  0
  -39.2410   21.7910  -13.7380 O   0  0  0  0  0  0  0  0  0  0  0  0
  -37.8850   22.2250  -15.6440 C   0  0  2  0  0  3  0  0  0  0  0  0
  -36.4090   21.9070  -15.8760 C   0  0  1  0  0  3  0  0  0  0  0  0
  -35.8760   23.0290  -13.8350 C   0  0  0  0  0  0  0  0  0  0  0  0
  -38.2650   23.5510  -16.2190 C   0  0  0  0  0  0  0  0  0  0  0  0
  -38.1910   22.2270  -14.1460 C   0  0  0  0  0  0  0  0  0  0  0  0
  -35.9990   22.3220  -17.2930 C   0  0  0  0  0  2  0  0  0  0  0  0
  -34.9160   23.6730  -13.0700 C   0  0  0  0  0  0  0  0  0  0  0  0
  -37.1620   22.8130  -13.3020 C   0  0  0  0  0  0  0  0  0  0  0  0
  -33.5060   24.0630  -13.3400 C   0  0  0  0  0  2  0  0  0  0  0  0
  -33.0860   24.7270  -11.9960 C   0  0  2  0  0  3  0  0  0  0  0  0
  -35.2630   24.0730  -11.7670 C   0  0  0  0  0  0  0  0  0  0  0  0
  -37.4150   24.2030  -17.1180 C   0  0  0  0  0  0  0  0  0  0  0  0
  -37.4580   23.2090  -11.9910 C   0  0  0  0  0  3  0  0  0  0  0  0
  -39.4660   24.1690  -15.8630 C   0  0  0  0  0  3  0  0  0  0  0  0
  -36.5140   23.8480  -11.1950 C   0  0  0  0  0  3  0  0  0  0  0  0
  -37.7150   25.4620  -17.6480 C   0  0  0  0  0  3  0  0  0  0  0  0
  -39.7820   25.4190  -16.3790 C   0  0  0  0  0  0  0  0  0  0  0  0
  -38.9100   26.0680  -17.2710 C   0  0  0  0  0  0  0  0  0  0  0  0
  -31.9770   23.9750  -11.3200 C   0  0  0  0  0  0  0  0  0  0  0  0
  -31.5800   22.6900  -11.9550 C   0  0  0  0  0  1  0  0  0  0  0  0
  -31.3910   24.4640  -10.2250 C   0  0  0  0  0  2  0  0  0  0  0  0
  -41.0100   25.9480  -16.0610 O   0  0  0  0  0  0  0  0  0  0  0  0
  -42.0490   25.4420  -16.8990 C   0  0  0  0  0  1  0  0  0  0  0  0
  -39.1130   27.3390  -17.7290 O   0  0  0  0  0  0  0  0  0  0  0  0
  -39.4840   27.4060  -19.1060 C   0  0  0  0  0  1  0  0  0  0  0  0
  1  7  1  0  0  0  0
  2 10  1  0  0  0  0
  2 16  1  0  0  0  0
  5  8  1  1  0  0  0
  5  9  1  0  0  0  0
  6 10  1  6  0  0  0
  6  5  1  0  0  0  0
  6  1  1  0  0  0  0
  7 12  2  0  0  0  0
  7 11  1  0  0  0  0
  8 18  1  0  0  0  0
  9  4  2  0  0  0  0
  9 12  1  0  0  0  0
 11 15  2  0  0  0  0
 12 17  1  0  0  0  0
 13 11  1  0  0  0  0
 13 14  1  0  0  0  0
 14 23  1  1  0  0  0
 14  3  1  0  0  0  0
 15 19  1  0  0  0  0
 15  3  1  0  0  0  0
 16  8  2  0  0  0  0
 17 19  2  0  0  0  0
 20 22  2  0  0  0  0
 20 16  1  0  0  0  0
 21 26  1  0  0  0  0
 21 18  2  0  0  0  0
 22 21  1  0  0  0  0
 23 25  2  0  0  0  0
 24 23  1  0  0  0  0
 27 26  1  0  0  0  0
 28 22  1  0  0  0  0
 29 28  1  0  0  0  0
M  END
>  <MODEL>
2

>  <REMARK>
 VINA RESULT:    -8.247     27.937     31.368
 INTER + INTRA:         -10.036
 INTER:                  -9.580
 INTRA:                  -0.457
 UNBOUND:                -0.343
  3 active torsions:
  status: ('A' for Active; 'I' for Inactive)
    1  A    between atoms: O5_5  and  C18_24 
    2  A    between atoms: O6_6  and  C19_25 
    3  A    between atoms: C10_16  and  C16_22 

>  <TORSDO>
F 3

$$$$
./Rotenona.pdbqt
 OpenBabel10282519553D

 29 33  0  0  1  0  0  0  0  0999 V2000
  -34.5630   23.6450  -16.3620 O   0  0  0  0  0  0  0  0  0  0  0  0
  -37.1910   23.0950  -17.1420 O   0  0  0  0  0  0  0  0  0  0  0  0
  -32.1190   22.2150  -12.7150 O   0  0  0  0  0  0  0  0  0  0  0  0
  -32.7290   21.0620  -18.9200 O   0  0  0  0  0  0  0  0  0  0  0  0
  -34.7120   22.2930  -18.4660 C   0  0  2  0  0  3  0  0  0  0  0  0
  -34.8790   23.6370  -17.7600 C   0  0  1  0  0  3  0  0  0  0  0  0
  -33.6320   22.7860  -15.9080 C   0  0  0  0  0  0  0  0  0  0  0  0
  -35.8050   21.3380  -18.1080 C   0  0  0  0  0  0  0  0  0  0  0  0
  -33.3660   21.6690  -18.0950 C   0  0  0  0  0  0  0  0  0  0  0  0
  -36.3530   24.0560  -17.7670 C   0  0  0  0  0  2  0  0  0  0  0  0
  -33.3240   22.8870  -14.5600 C   0  0  0  0  0  0  0  0  0  0  0  0
  -32.9670   21.8350  -16.7060 C   0  0  0  0  0  0  0  0  0  0  0  0
  -33.8460   23.7510  -13.4670 C   0  0  0  0  0  2  0  0  0  0  0  0
  -32.9950   23.2890  -12.2490 C   0  0  2  0  0  3  0  0  0  0  0  0
  -32.3310   22.0360  -14.0400 C   0  0  0  0  0  0  0  0  0  0  0  0
  -36.9630   21.7950  -17.4700 C   0  0  0  0  0  0  0  0  0  0  0  0
  -31.9700   21.0230  -16.1520 C   0  0  0  0  0  3  0  0  0  0  0  0
  -35.6880   19.9750  -18.3910 C   0  0  0  0  0  3  0  0  0  0  0  0
  -31.6300   21.1060  -14.8060 C   0  0  0  0  0  3  0  0  0  0  0  0
  -37.9920   20.9280  -17.0830 C   0  0  0  0  0  3  0  0  0  0  0  0
  -36.6990   19.1000  -18.0160 C   0  0  0  0  0  0  0  0  0  0  0  0
  -37.8510   19.5730  -17.3630 C   0  0  0  0  0  0  0  0  0  0  0  0
  -32.1310   24.3930  -11.7140 C   0  0  0  0  0  0  0  0  0  0  0  0
  -30.6740   24.1050  -11.6440 C   0  0  0  0  0  1  0  0  0  0  0  0
  -32.6670   25.5590  -11.3450 C   0  0  0  0  0  2  0  0  0  0  0  0
  -36.5720   17.7830  -18.3890 O   0  0  0  0  0  0  0  0  0  0  0  0
  -35.2080   17.3610  -18.4180 C   0  0  0  0  0  1  0  0  0  0  0  0
  -38.8280   18.7510  -16.8750 O   0  0  0  0  0  0  0  0  0  0  0  0
  -40.1470   19.1180  -17.2780 C   0  0  0  0  0  1  0  0  0  0  0  0
  1  7  1  0  0  0  0
  3 14  1  0  0  0  0
  4  9  2  0  0  0  0
  5  8  1  1  0  0  0
  5  9  1  0  0  0  0
  5  6  1  0  0  0  0
  6 10  1  1  0  0  0
  6  1  1  0  0  0  0
  7 11  1  0  0  0  0
  8 16  1  0  0  0  0
  9 12  1  0  0  0  0
 10  2  1  0  0  0  0
 11 15  2  0  0  0  0
 11 13  1  0  0  0  0
 12 17  1  0  0  0  0
 12  7  2  0  0  0  0
 13 14  1  0  0  0  0
 14 23  1  6  0  0  0
 15  3  1  0  0  0  0
 16  2  1  0  0  0  0
 16 20  2  0  0  0  0
 17 19  2  0  0  0  0
 18  8  2  0  0  0  0
 18 21  1  0  0  0  0
 19 15  1  0  0  0  0
 21 22  2  0  0  0  0
 22 20  1  0  0  0  0
 22 28  1  0  0  0  0
 23 24  1  0  0  0  0
 23 25  2  0  0  0  0
 26 21  1  0  0  0  0
 27 26  1  0  0  0  0
 29 28  1  0  0  0  0
M  END
>  <MODEL>
3

>  <REMARK>
 VINA RESULT:    -8.072     30.354     33.609
 INTER + INTRA:          -9.831
 INTER:                  -9.433
 INTRA:                  -0.398
 UNBOUND:                -0.343
  3 active torsions:
  status: ('A' for Active; 'I' for Inactive)
    1  A    between atoms: O5_5  and  C18_24 
    2  A    between atoms: O6_6  and  C19_25 
    3  A    between atoms: C10_16  and  C16_22 

>  <TORSDO>
F 3

$$$$
./Rotenona.pdbqt
 OpenBabel10282519553D

 29 33  0  0  1  0  0  0  0  0999 V2000
  -36.0190   23.0100  -16.5240 O   0  0  0  0  0  0  0  0  0  0  0  0
  -36.5890   23.3430  -13.8070 O   0  0  0  0  0  0  0  0  0  0  0  0
  -34.2700   25.9370  -19.6380 O   0  0  0  0  0  0  0  0  0  0  0  0
  -32.5020   21.0120  -16.0580 O   0  0  0  0  0  0  0  0  0  0  0  0
  -34.5500   21.6420  -15.0260 C   0  0  2  0  0  3  0  0  0  0  0  0
  -35.9220   21.8740  -15.6560 C   0  0  1  0  0  3  0  0  0  0  0  0
  -34.9220   23.4000  -17.1990 C   0  0  0  0  0  0  0  0  0  0  0  0
  -34.2630   22.6260  -13.9390 C   0  0  0  0  0  0  0  0  0  0  0  0
  -33.4590   21.7460  -16.0920 C   0  0  0  0  0  0  0  0  0  0  0  0
  -36.9510   22.2010  -14.5690 C   0  0  0  0  0  2  0  0  0  0  0  0
  -35.0950   24.4640  -18.0710 C   0  0  0  0  0  0  0  0  0  0  0  0
  -33.6550   22.7950  -17.0810 C   0  0  0  0  0  0  0  0  0  0  0  0
  -36.2700   25.3130  -18.4060 C   0  0  0  0  0  2  0  0  0  0  0  0
  -35.6840   26.2750  -19.4800 C   0  0  2  0  0  3  0  0  0  0  0  0
  -33.9890   24.8890  -18.8290 C   0  0  0  0  0  0  0  0  0  0  0  0
  -35.2910   23.4110  -13.4060 C   0  0  0  0  0  0  0  0  0  0  0  0
  -32.5860   23.2370  -17.8700 C   0  0  0  0  0  3  0  0  0  0  0  0
  -32.9680   22.7900  -13.4430 C   0  0  0  0  0  3  0  0  0  0  0  0
  -32.7300   24.2950  -18.7610 C   0  0  0  0  0  3  0  0  0  0  0  0
  -35.0580   24.3720  -12.4160 C   0  0  0  0  0  3  0  0  0  0  0  0
  -32.7170   23.7380  -12.4590 C   0  0  0  0  0  0  0  0  0  0  0  0
  -33.7580   24.5290  -11.9440 C   0  0  0  0  0  0  0  0  0  0  0  0
  -36.3540   26.1060  -20.8120 C   0  0  0  0  0  0  0  0  0  0  0  0
  -35.5790   26.5710  -21.9940 C   0  0  0  0  0  1  0  0  0  0  0  0
  -37.5660   25.5530  -20.9000 C   0  0  0  0  0  2  0  0  0  0  0  0
  -31.4420   23.8040  -11.9500 O   0  0  0  0  0  0  0  0  0  0  0  0
  -31.2990   23.0370  -10.7540 C   0  0  0  0  0  1  0  0  0  0  0  0
  -33.5580   25.5480  -11.0560 O   0  0  0  0  0  0  0  0  0  0  0  0
  -32.7930   26.6320  -11.5810 C   0  0  0  0  0  1  0  0  0  0  0  0
  1  6  1  0  0  0  0
  2 16  1  0  0  0  0
  3 14  1  0  0  0  0
  3 15  1  0  0  0  0
  5  9  1  6  0  0  0
  5  8  1  0  0  0  0
  6  5  1  0  0  0  0
  6 10  1  1  0  0  0
  7 12  1  0  0  0  0
  7  1  1  0  0  0  0
  8 18  2  0  0  0  0
  8 16  1  0  0  0  0
  9  4  2  0  0  0  0
 10  2  1  0  0  0  0
 11  7  2  0  0  0  0
 12  9  1  0  0  0  0
 13 11  1  0  0  0  0
 14 23  1  6  0  0  0
 14 13  1  0  0  0  0
 15 19  2  0  0  0  0
 15 11  1  0  0  0  0
 16 20  2  0  0  0  0
 17 12  2  0  0  0  0
 18 21  1  0  0  0  0
 19 17  1  0  0  0  0
 20 22  1  0  0  0  0
 21 26  1  0  0  0  0
 21 22  2  0  0  0  0
 22 28  1  0  0  0  0
 24 23  1  0  0  0  0
 25 23  2  0  0  0  0
 26 27  1  0  0  0  0
 29 28  1  0  0  0  0
M  END
>  <MODEL>
4

>  <REMARK>
 VINA RESULT:    -8.043     29.029     32.181
 INTER + INTRA:          -9.797
 INTER:                  -9.510
 INTRA:                  -0.287
 UNBOUND:                -0.343
  3 active torsions:
  status: ('A' for Active; 'I' for Inactive)
    1  A    between atoms: O5_5  and  C18_24 
    2  A    between atoms: O6_6  and  C19_25 
    3  A    between atoms: C10_16  and  C16_22 

>  <TORSDO>
F 3

$$$$
./Rotenona.pdbqt
 OpenBabel10282519553D

 29 33  0  0  1  0  0  0  0  0999 V2000
  -43.2560   29.9480    2.6740 O   0  0  0  0  0  0  0  0  0  0  0  0
  -44.1690   27.6610    1.3500 O   0  0  0  0  0  0  0  0  0  0  0  0
  -39.0210   31.7520    3.0430 O   0  0  0  0  0  0  0  0  0  0  0  0
  -44.4360   32.6570   -0.1280 O   0  0  0  0  0  0  0  0  0  0  0  0
  -44.7430   30.4580    0.7240 C   0  0  2  0  0  3  0  0  0  0  0  0
  -44.5910   29.9420    2.1530 C   0  0  1  0  0  3  0  0  0  0  0  0
  -42.3950   30.8820    2.2270 C   0  0  0  0  0  0  0  0  0  0  0  0
  -44.2370   29.4730   -0.2800 C   0  0  0  0  0  0  0  0  0  0  0  0
  -43.9820   31.7730    0.5570 C   0  0  0  0  0  0  0  0  0  0  0  0
  -44.9620   28.4570    2.2190 C   0  0  0  0  0  2  0  0  0  0  0  0
  -41.1400   30.8780    2.8150 C   0  0  0  0  0  0  0  0  0  0  0  0
  -42.6990   31.8390    1.2390 C   0  0  0  0  0  0  0  0  0  0  0  0
  -40.5120   30.0100    3.8480 C   0  0  0  0  0  2  0  0  0  0  0  0
  -39.0980   30.6440    3.9930 C   0  0  2  0  0  3  0  0  0  0  0  0
  -40.2130   31.8570    2.4100 C   0  0  0  0  0  0  0  0  0  0  0  0
  -43.9790   28.1500    0.0940 C   0  0  0  0  0  0  0  0  0  0  0  0
  -41.7530   32.8080    0.8810 C   0  0  0  0  0  3  0  0  0  0  0  0
  -44.0000   29.8550   -1.6020 C   0  0  0  0  0  3  0  0  0  0  0  0
  -40.4890   32.8380    1.4590 C   0  0  0  0  0  3  0  0  0  0  0  0
  -43.4670   27.2080   -0.8050 C   0  0  0  0  0  3  0  0  0  0  0  0
  -43.4930   28.9330   -2.5100 C   0  0  0  0  0  0  0  0  0  0  0  0
  -43.2260   27.6110   -2.1140 C   0  0  0  0  0  0  0  0  0  0  0  0
  -38.8670   31.1950    5.3690 C   0  0  0  0  0  0  0  0  0  0  0  0
  -39.5090   30.4490    6.4850 C   0  0  0  0  0  1  0  0  0  0  0  0
  -38.1140   32.2820    5.5510 C   0  0  0  0  0  2  0  0  0  0  0  0
  -43.3540   29.3370   -3.8160 O   0  0  0  0  0  0  0  0  0  0  0  0
  -43.5190   30.7470   -3.9660 C   0  0  0  0  0  1  0  0  0  0  0  0
  -42.6290   26.6890   -2.9290 O   0  0  0  0  0  0  0  0  0  0  0  0
  -43.5370   25.7470   -3.4990 C   0  0  0  0  0  1  0  0  0  0  0  0
  2 10  1  0  0  0  0
  3 14  1  0  0  0  0
  4  9  2  0  0  0  0
  5  8  1  6  0  0  0
  5  6  1  0  0  0  0
  6 10  1  6  0  0  0
  6  1  1  0  0  0  0
  7  1  1  0  0  0  0
  7 11  1  0  0  0  0
  8 16  1  0  0  0  0
  9  5  1  0  0  0  0
  9 12  1  0  0  0  0
 11 13  1  0  0  0  0
 12  7  2  0  0  0  0
 13 14  1  0  0  0  0
 14 23  1  1  0  0  0
 15 11  2  0  0  0  0
 15  3  1  0  0  0  0
 16  2  1  0  0  0  0
 17 12  1  0  0  0  0
 17 19  2  0  0  0  0
 18  8  2  0  0  0  0
 19 15  1  0  0  0  0
 20 16  2  0  0  0  0
 21 22  2  0  0  0  0
 21 18  1  0  0  0  0
 22 20  1  0  0  0  0
 23 25  2  0  0  0  0
 23 24  1  0  0  0  0
 26 21  1  0  0  0  0
 27 26  1  0  0  0  0
 28 22  1  0  0  0  0
 29 28  1  0  0  0  0
M  END
>  <MODEL>
5

>  <REMARK>
 VINA RESULT:    -7.758     13.447     16.755
 INTER + INTRA:          -9.461
 INTER:                  -9.013
 INTRA:                  -0.449
 UNBOUND:                -0.343
  3 active torsions:
  status: ('A' for Active; 'I' for Inactive)
    1  A    between atoms: O5_5  and  C18_24 
    2  A    between atoms: O6_6  and  C19_25 
    3  A    between atoms: C10_16  and  C16_22 

>  <TORSDO>
F 3

$$$$
./Rotenona.pdbqt
 OpenBabel10282519553D

 29 33  0  0  1  0  0  0  0  0999 V2000
  -33.0820   21.6410  -14.5070 O   0  0  0  0  0  0  0  0  0  0  0  0
  -32.2050   21.4490  -17.1550 O   0  0  0  0  0  0  0  0  0  0  0  0
  -33.3730   25.2670  -11.6630 O   0  0  0  0  0  0  0  0  0  0  0  0
  -37.0760   21.6240  -15.2980 O   0  0  0  0  0  0  0  0  0  0  0  0
  -34.9130   21.0780  -16.1220 C   0  0  2  0  0  3  0  0  0  0  0  0
  -33.6650   20.6430  -15.3550 C   0  0  1  0  0  3  0  0  0  0  0  0
  -33.8860   22.5720  -13.9620 C   0  0  0  0  0  0  0  0  0  0  0  0
  -34.5790   21.9920  -17.2550 C   0  0  0  0  0  0  0  0  0  0  0  0
  -35.8860   21.7870  -15.1800 C   0  0  0  0  0  0  0  0  0  0  0  0
  -32.5270   20.3370  -16.3330 C   0  0  0  0  0  2  0  0  0  0  0  0
  -33.2740   23.4700  -13.1000 C   0  0  0  0  0  0  0  0  0  0  0  0
  -35.2710   22.6690  -14.1990 C   0  0  0  0  0  0  0  0  0  0  0  0
  -31.8640   23.6460  -12.6620 C   0  0  0  0  0  2  0  0  0  0  0  0
  -31.9740   24.8470  -11.6780 C   0  0  2  0  0  3  0  0  0  0  0  0
  -34.0760   24.4420  -12.4740 C   0  0  0  0  0  0  0  0  0  0  0  0
  -33.2570   22.1230  -17.6930 C   0  0  0  0  0  0  0  0  0  0  0  0
  -36.0350   23.6390  -13.5390 C   0  0  0  0  0  3  0  0  0  0  0  0
  -35.5730   22.7410  -17.8890 C   0  0  0  0  0  3  0  0  0  0  0  0
  -35.4530   24.5470  -12.6610 C   0  0  0  0  0  3  0  0  0  0  0  0
  -32.8970   22.9980  -18.7240 C   0  0  0  0  0  3  0  0  0  0  0  0
  -35.2350   23.6150  -18.9150 C   0  0  0  0  0  0  0  0  0  0  0  0
  -33.9000   23.7450  -19.3340 C   0  0  0  0  0  0  0  0  0  0  0  0
  -31.5890   24.4640  -10.2790 C   0  0  0  0  0  0  0  0  0  0  0  0
  -30.3490   23.6540  -10.1430 C   0  0  0  0  0  1  0  0  0  0  0  0
  -32.3270   24.8550   -9.2380 C   0  0  0  0  0  2  0  0  0  0  0  0
  -36.2600   24.2670  -19.5580 O   0  0  0  0  0  0  0  0  0  0  0  0
  -36.6710   25.4440  -18.8620 C   0  0  0  0  0  1  0  0  0  0  0  0
  -33.4900   24.6610  -20.2620 O   0  0  0  0  0  0  0  0  0  0  0  0
  -32.7490   25.7490  -19.7120 C   0  0  0  0  0  1  0  0  0  0  0  0
  1  7  1  0  0  0  0
  2 10  1  0  0  0  0
  4  9  2  0  0  0  0
  5  8  1  6  0  0  0
  5  6  1  0  0  0  0
  5  9  1  0  0  0  0
  6 10  1  6  0  0  0
  6  1  1  0  0  0  0
  7 11  1  0  0  0  0
  9 12  1  0  0  0  0
 11 13  1  0  0  0  0
 11 15  2  0  0  0  0
 12  7  2  0  0  0  0
 12 17  1  0  0  0  0
 13 14  1  0  0  0  0
 14  3  1  0  0  0  0
 14 23  1  1  0  0  0
 15  3  1  0  0  0  0
 16  8  1  0  0  0  0
 16  2  1  0  0  0  0
 17 19  2  0  0  0  0
 18  8  2  0  0  0  0
 19 15  1  0  0  0  0
 20 16  2  0  0  0  0
 21 18  1  0  0  0  0
 22 21  2  0  0  0  0
 22 20  1  0  0  0  0
 23 24  1  0  0  0  0
 23 25  2  0  0  0  0
 26 21  1  0  0  0  0
 26 27  1  0  0  0  0
 28 29  1  0  0  0  0
 28 22  1  0  0  0  0
M  END
>  <MODEL>
6

>  <REMARK>
 VINA RESULT:    -7.567     28.923     32.394
 INTER + INTRA:          -9.237
 INTER:                  -8.725
 INTRA:                  -0.512
 UNBOUND:                -0.343
  3 active torsions:
  status: ('A' for Active; 'I' for Inactive)
    1  A    between atoms: O5_5  and  C18_24 
    2  A    between atoms: O6_6  and  C19_25 
    3  A    between atoms: C10_16  and  C16_22 

>  <TORSDO>
F 3

$$$$
./Rotenona.pdbqt
 OpenBabel10282519553D

 29 33  0  0  1  0  0  0  0  0999 V2000
  -44.4350   31.3440    1.5560 O   0  0  0  0  0  0  0  0  0  0  0  0
  -42.9390   33.6380    2.1170 O   0  0  0  0  0  0  0  0  0  0  0  0
  -43.4540   27.6350   -1.0140 O   0  0  0  0  0  0  0  0  0  0  0  0
  -43.7240   29.4090    5.0670 O   0  0  0  0  0  0  0  0  0  0  0  0
  -43.7360   31.5110    3.9560 C   0  0  2  0  0  3  0  0  0  0  0  0
  -44.6270   32.0000    2.8160 C   0  0  1  0  0  3  0  0  0  0  0  0
  -44.0250   30.0620    1.5540 C   0  0  0  0  0  0  0  0  0  0  0  0
  -42.3280   31.9890    3.8050 C   0  0  0  0  0  0  0  0  0  0  0  0
  -43.7400   29.9830    4.0060 C   0  0  0  0  0  0  0  0  0  0  0  0
  -44.3000   33.4580    2.4800 C   0  0  0  0  0  2  0  0  0  0  0  0
  -43.9210   29.4630    0.3080 C   0  0  0  0  0  0  0  0  0  0  0  0
  -43.7230   29.3190    2.7120 C   0  0  0  0  0  0  0  0  0  0  0  0
  -44.1430   29.9650   -1.0750 C   0  0  0  0  0  2  0  0  0  0  0  0
  -43.8440   28.7020   -1.9340 C   0  0  2  0  0  3  0  0  0  0  0  0
  -43.5310   28.1120    0.2510 C   0  0  0  0  0  0  0  0  0  0  0  0
  -42.0200   33.0100    2.8990 C   0  0  0  0  0  0  0  0  0  0  0  0
  -43.3590   27.9700    2.6100 C   0  0  0  0  0  3  0  0  0  0  0  0
  -41.2940   31.4210    4.5520 C   0  0  0  0  0  3  0  0  0  0  0  0
  -43.2550   27.3380    1.3760 C   0  0  0  0  0  3  0  0  0  0  0  0
  -40.7100   33.4580    2.6990 C   0  0  0  0  0  3  0  0  0  0  0  0
  -39.9860   31.8530    4.3680 C   0  0  0  0  0  0  0  0  0  0  0  0
  -39.6920   32.8710    3.4440 C   0  0  0  0  0  0  0  0  0  0  0  0
  -45.0520   28.2400   -2.6950 C   0  0  0  0  0  0  0  0  0  0  0  0
  -46.3270   28.9400   -2.3800 C   0  0  0  0  0  1  0  0  0  0  0  0
  -44.9550   27.2680   -3.6040 C   0  0  0  0  0  2  0  0  0  0  0  0
  -39.0180   31.3190    5.1840 O   0  0  0  0  0  0  0  0  0  0  0  0
  -39.5730   30.5040    6.2170 C   0  0  0  0  0  1  0  0  0  0  0  0
  -38.4190   33.2650    3.1420 O   0  0  0  0  0  0  0  0  0  0  0  0
  -38.3290   34.0940    1.9840 C   0  0  0  0  0  1  0  0  0  0  0  0
  1  6  1  0  0  0  0
  2 10  1  0  0  0  0
  2 16  1  0  0  0  0
  3 15  1  0  0  0  0
  5  8  1  6  0  0  0
  5  9  1  0  0  0  0
  6 10  1  6  0  0  0
  6  5  1  0  0  0  0
  7  1  1  0  0  0  0
  7 12  1  0  0  0  0
  8 18  1  0  0  0  0
  9  4  2  0  0  0  0
 11  7  2  0  0  0  0
 12  9  1  0  0  0  0
 13 11  1  0  0  0  0
 14 23  1  1  0  0  0
 14 13  1  0  0  0  0
 14  3  1  0  0  0  0
 15 11  1  0  0  0  0
 15 19  2  0  0  0  0
 16  8  2  0  0  0  0
 17 12  2  0  0  0  0
 19 17  1  0  0  0  0
 20 16  1  0  0  0  0
 20 22  2  0  0  0  0
 21 18  2  0  0  0  0
 21 26  1  0  0  0  0
 22 21  1  0  0  0  0
 23 24  1  0  0  0  0
 25 23  2  0  0  0  0
 26 27  1  0  0  0  0
 28 22  1  0  0  0  0
 29 28  1  0  0  0  0
M  END
>  <MODEL>
7

>  <REMARK>
 VINA RESULT:    -7.552     12.457     16.044
 INTER + INTRA:          -9.220
 INTER:                  -8.801
 INTRA:                  -0.419
 UNBOUND:                -0.343
  3 active torsions:
  status: ('A' for Active; 'I' for Inactive)
    1  A    between atoms: O5_5  and  C18_24 
    2  A    between atoms: O6_6  and  C19_25 
    3  A    between atoms: C10_16  and  C16_22 

>  <TORSDO>
F 3

$$$$
./Rotenona.pdbqt
 OpenBabel10282519553D

 29 33  0  0  1  0  0  0  0  0999 V2000
  -41.2160   27.2400    5.1720 O   0  0  0  0  0  0  0  0  0  0  0  0
  -41.1440   24.5130    4.5580 O   0  0  0  0  0  0  0  0  0  0  0  0
  -42.7700   30.8540    2.7540 O   0  0  0  0  0  0  0  0  0  0  0  0
  -44.4940   27.1270    7.5840 O   0  0  0  0  0  0  0  0  0  0  0  0
  -42.7350   25.8590    6.6070 C   0  0  2  0  0  3  0  0  0  0  0  0
  -41.3160   26.2920    6.2410 C   0  0  1  0  0  3  0  0  0  0  0  0
  -42.2260   28.1100    4.9860 C   0  0  0  0  0  0  0  0  0  0  0  0
  -43.3130   24.9290    5.5900 C   0  0  0  0  0  0  0  0  0  0  0  0
  -43.6410   27.0850    6.7320 C   0  0  0  0  0  0  0  0  0  0  0  0
  -40.5270   25.0970    5.6960 C   0  0  0  0  0  2  0  0  0  0  0  0
  -42.0420   29.0450    3.9780 C   0  0  0  0  0  0  0  0  0  0  0  0
  -43.4130   28.1290    5.7450 C   0  0  0  0  0  0  0  0  0  0  0  0
  -40.9400   29.2760    3.0060 C   0  0  0  0  0  2  0  0  0  0  0  0
  -41.4540   30.5150    2.2180 C   0  0  2  0  0  3  0  0  0  0  0  0
  -43.0530   30.0000    3.7660 C   0  0  0  0  0  0  0  0  0  0  0  0
  -42.4890   24.3240    4.6350 C   0  0  0  0  0  0  0  0  0  0  0  0
  -44.3830   29.1110    5.5130 C   0  0  0  0  0  3  0  0  0  0  0  0
  -44.6820   24.6560    5.5650 C   0  0  0  0  0  3  0  0  0  0  0  0
  -44.2240   30.0690    4.5170 C   0  0  0  0  0  3  0  0  0  0  0  0
  -42.9970   23.4790    3.6420 C   0  0  0  0  0  3  0  0  0  0  0  0
  -45.2050   23.8190    4.5870 C   0  0  0  0  0  0  0  0  0  0  0  0
  -44.3650   23.2300    3.6250 C   0  0  0  0  0  0  0  0  0  0  0  0
  -40.5590   31.7070    2.3960 C   0  0  0  0  0  0  0  0  0  0  0  0
  -41.1340   33.0190    1.9970 C   0  0  0  0  0  1  0  0  0  0  0  0
  -39.3300   31.5660    2.9000 C   0  0  0  0  0  2  0  0  0  0  0  0
  -46.5440   23.5190    4.6550 O   0  0  0  0  0  0  0  0  0  0  0  0
  -46.8240   22.5200    5.6350 C   0  0  0  0  0  1  0  0  0  0  0  0
  -44.8300   22.4850    2.5780 O   0  0  0  0  0  0  0  0  0  0  0  0
  -44.0120   22.5540    1.4110 C   0  0  0  0  0  1  0  0  0  0  0  0
  1  6  1  0  0  0  0
  2 16  1  0  0  0  0
  2 10  1  0  0  0  0
  3 15  1  0  0  0  0
  5  8  1  6  0  0  0
  5  9  1  0  0  0  0
  6 10  1  6  0  0  0
  6  5  1  0  0  0  0
  7  1  1  0  0  0  0
  7 12  1  0  0  0  0
  9  4  2  0  0  0  0
 11  7  2  0  0  0  0
 12  9  1  0  0  0  0
 13 11  1  0  0  0  0
 14 23  1  1  0  0  0
 14  3  1  0  0  0  0
 14 13  1  0  0  0  0
 15 11  1  0  0  0  0
 15 19  2  0  0  0  0
 16  8  2  0  0  0  0
 17 12  2  0  0  0  0
 18  8  1  0  0  0  0
 19 17  1  0  0  0  0
 20 16  1  0  0  0  0
 21 26  1  0  0  0  0
 21 18  2  0  0  0  0
 22 20  2  0  0  0  0
 22 21  1  0  0  0  0
 23 25  2  0  0  0  0
 24 23  1  0  0  0  0
 26 27  1  0  0  0  0
 28 22  1  0  0  0  0
 29 28  1  0  0  0  0
M  END
>  <MODEL>
8

>  <REMARK>
 VINA RESULT:    -7.379     13.272     16.595
 INTER + INTRA:          -9.016
 INTER:                  -8.560
 INTRA:                  -0.457
 UNBOUND:                -0.343
  3 active torsions:
  status: ('A' for Active; 'I' for Inactive)
    1  A    between atoms: O5_5  and  C18_24 
    2  A    between atoms: O6_6  and  C19_25 
    3  A    between atoms: C10_16  and  C16_22 

>  <TORSDO>
F 3

$$$$
./Rotenona.pdbqt
 OpenBabel10282519553D

 29 33  0  0  1  0  0  0  0  0999 V2000
  -33.8450   20.7560  -15.6160 O   0  0  0  0  0  0  0  0  0  0  0  0
  -32.8450   20.7470  -18.2270 O   0  0  0  0  0  0  0  0  0  0  0  0
  -34.7480   24.2400  -12.7230 O   0  0  0  0  0  0  0  0  0  0  0  0
  -37.7640   20.2080  -16.5760 O   0  0  0  0  0  0  0  0  0  0  0  0
  -35.5150   19.9840  -17.3160 C   0  0  2  0  0  3  0  0  0  0  0  0
  -34.2510   19.7070  -16.5050 C   0  0  1  0  0  3  0  0  0  0  0  0
  -34.7920   21.5540  -15.0890 C   0  0  0  0  0  0  0  0  0  0  0  0
  -35.2660   20.9620  -18.4180 C   0  0  0  0  0  0  0  0  0  0  0  0
  -36.6140   20.5310  -16.4050 C   0  0  0  0  0  0  0  0  0  0  0  0
  -33.0430   19.5830  -17.4390 C   0  0  0  0  0  2  0  0  0  0  0  0
  -34.3450   22.5070  -14.1860 C   0  0  0  0  0  0  0  0  0  0  0  0
  -36.1660   21.4650  -15.3840 C   0  0  0  0  0  0  0  0  0  0  0  0
  -32.9900   22.8650  -13.6850 C   0  0  0  0  0  2  0  0  0  0  0  0
  -33.3040   24.0160  -12.6860 C   0  0  2  0  0  3  0  0  0  0  0  0
  -35.2970   23.3450  -13.5780 C   0  0  0  0  0  0  0  0  0  0  0  0
  -33.9580   21.2830  -18.7970 C   0  0  0  0  0  0  0  0  0  0  0  0
  -37.0820   22.3060  -14.7390 C   0  0  0  0  0  3  0  0  0  0  0  0
  -36.3280   21.5820  -19.0800 C   0  0  0  0  0  3  0  0  0  0  0  0
  -36.6670   23.2650  -13.8220 C   0  0  0  0  0  3  0  0  0  0  0  0
  -33.6820   22.2230  -19.7960 C   0  0  0  0  0  3  0  0  0  0  0  0
  -36.0740   22.5170  -20.0760 C   0  0  0  0  0  0  0  0  0  0  0  0
  -34.7530   22.8390  -20.4350 C   0  0  0  0  0  0  0  0  0  0  0  0
  -32.9260   23.6580  -11.2780 C   0  0  0  0  0  0  0  0  0  0  0  0
  -33.9260   23.9950  -10.2300 C   0  0  0  0  0  1  0  0  0  0  0  0
  -31.7620   23.0610  -11.0170 C   0  0  0  0  0  2  0  0  0  0  0  0
  -37.1520   23.0370  -20.7510 O   0  0  0  0  0  0  0  0  0  0  0  0
  -37.8270   24.0430  -19.9950 C   0  0  0  0  0  1  0  0  0  0  0  0
  -34.4380   23.8240  -21.3280 O   0  0  0  0  0  0  0  0  0  0  0  0
  -34.0950   25.0680  -20.7200 C   0  0  0  0  0  1  0  0  0  0  0  0
  1  7  1  0  0  0  0
  2 10  1  0  0  0  0
  3 14  1  0  0  0  0
  4  9  2  0  0  0  0
  5  8  1  6  0  0  0
  5  6  1  0  0  0  0
  5  9  1  0  0  0  0
  6 10  1  6  0  0  0
  6  1  1  0  0  0  0
  7 11  1  0  0  0  0
  9 12  1  0  0  0  0
 11 13  1  0  0  0  0
 11 15  2  0  0  0  0
 12  7  2  0  0  0  0
 12 17  1  0  0  0  0
 13 14  1  0  0  0  0
 14 23  1  1  0  0  0
 15  3  1  0  0  0  0
 16  8  1  0  0  0  0
 16  2  1  0  0  0  0
 17 19  2  0  0  0  0
 18  8  2  0  0  0  0
 19 15  1  0  0  0  0
 20 16  2  0  0  0  0
 21 18  1  0  0  0  0
 22 21  2  0  0  0  0
 22 20  1  0  0  0  0
 23 25  2  0  0  0  0
 23 24  1  0  0  0  0
 26 21  1  0  0  0  0
 26 27  1  0  0  0  0
 28 29  1  0  0  0  0
 28 22  1  0  0  0  0
M  END
>  <MODEL>
9

>  <REMARK>
 VINA RESULT:    -7.321     30.330     33.760
 INTER + INTRA:          -8.948
 INTER:                  -8.426
 INTRA:                  -0.521
 UNBOUND:                -0.343
  3 active torsions:
  status: ('A' for Active; 'I' for Inactive)
    1  A    between atoms: O5_5  and  C18_24 
    2  A    between atoms: O6_6  and  C19_25 
    3  A    between atoms: C10_16  and  C16_22 

>  <TORSDO>
F 3

$$$$
./Rotenona.pdbqt
 OpenBabel10282519553D

 29 33  0  0  1  0  0  0  0  0999 V2000
  -44.5090   24.0890    1.7140 O   0  0  0  0  0  0  0  0  0  0  0  0
  -44.1170   22.0200   -0.1260 O   0  0  0  0  0  0  0  0  0  0  0  0
  -41.5260   27.0380    3.6440 O   0  0  0  0  0  0  0  0  0  0  0  0
  -45.9160   26.8500   -0.9260 O   0  0  0  0  0  0  0  0  0  0  0  0
  -45.5510   24.5360   -0.5200 C   0  0  2  0  0  3  0  0  0  0  0  0
  -45.5670   23.7700    0.8020 C   0  0  1  0  0  3  0  0  0  0  0  0
  -43.9930   25.3320    1.6920 C   0  0  0  0  0  0  0  0  0  0  0  0
  -44.4760   24.0450   -1.4340 C   0  0  0  0  0  0  0  0  0  0  0  0
  -45.3390   26.0270   -0.2580 C   0  0  0  0  0  0  0  0  0  0  0  0
  -45.3420   22.2760    0.5460 C   0  0  0  0  0  2  0  0  0  0  0  0
  -43.0190   25.5990    2.6420 C   0  0  0  0  0  0  0  0  0  0  0  0
  -44.3900   26.3440    0.7970 C   0  0  0  0  0  0  0  0  0  0  0  0
  -42.3790   24.7630    3.6930 C   0  0  0  0  0  2  0  0  0  0  0  0
  -41.4000   25.7710    4.3620 C   0  0  2  0  0  3  0  0  0  0  0  0
  -42.4720   26.8940    2.6860 C   0  0  0  0  0  0  0  0  0  0  0  0
  -43.8290   22.8310   -1.1790 C   0  0  0  0  0  0  0  0  0  0  0  0
  -43.8340   27.6260    0.8910 C   0  0  0  0  0  3  0  0  0  0  0  0
  -44.0880   24.7910   -2.5500 C   0  0  0  0  0  3  0  0  0  0  0  0
  -42.8610   27.9290    1.8380 C   0  0  0  0  0  3  0  0  0  0  0  0
  -42.7900   22.3560   -1.9880 C   0  0  0  0  0  3  0  0  0  0  0  0
  -43.0600   24.3350   -3.3650 C   0  0  0  0  0  0  0  0  0  0  0  0
  -42.4100   23.1200   -3.0870 C   0  0  0  0  0  0  0  0  0  0  0  0
  -41.7430   26.0180    5.8020 C   0  0  0  0  0  0  0  0  0  0  0  0
  -41.0350   25.1670    6.7950 C   0  0  0  0  0  1  0  0  0  0  0  0
  -42.6250   26.9620    6.1400 C   0  0  0  0  0  2  0  0  0  0  0  0
  -42.7710   25.0650   -4.4930 O   0  0  0  0  0  0  0  0  0  0  0  0
  -43.5250   24.6290   -5.6250 C   0  0  0  0  0  1  0  0  0  0  0  0
  -41.3250   22.6710   -3.7860 O   0  0  0  0  0  0  0  0  0  0  0  0
  -40.3380   22.0330   -2.9770 C   0  0  0  0  0  1  0  0  0  0  0  0
  2 10  1  0  0  0  0
  3 14  1  0  0  0  0
  4  9  2  0  0  0  0
  5  8  1  6  0  0  0
  5  9  1  0  0  0  0
  5  6  1  0  0  0  0
  6 10  1  6  0  0  0
  6  1  1  0  0  0  0
  7  1  1  0  0  0  0
  7 11  1  0  0  0  0
  8 16  1  0  0  0  0
  9 12  1  0  0  0  0
 11 15  2  0  0  0  0
 11 13  1  0  0  0  0
 12 17  1  0  0  0  0
 12  7  2  0  0  0  0
 13 14  1  0  0  0  0
 14 23  1  1  0  0  0
 15  3  1  0  0  0  0
 16  2  1  0  0  0  0
 17 19  2  0  0  0  0
 18  8  2  0  0  0  0
 19 15  1  0  0  0  0
 20 16  2  0  0  0  0
 21 22  2  0  0  0  0
 21 18  1  0  0  0  0
 22 20  1  0  0  0  0
 23 25  2  0  0  0  0
 23 24  1  0  0  0  0
 26 21  1  0  0  0  0
 27 26  1  0  0  0  0
 28 22  1  0  0  0  0
 28 29  1  0  0  0  0
M  END
>  <MODEL>
10

>  <REMARK>
 VINA RESULT:    -7.295     16.983     20.901
 INTER + INTRA:          -8.917
 INTER:                  -8.586
 INTRA:                  -0.331
 UNBOUND:                -0.343
  3 active torsions:
  status: ('A' for Active; 'I' for Inactive)
    1  A    between atoms: O5_5  and  C18_24 
    2  A    between atoms: O6_6  and  C19_25 
    3  A    between atoms: C10_16  and  C16_22 

>  <TORSDO>
F 3

$$$$
./Rotenona.pdbqt
 OpenBabel10282519553D

 29 33  0  0  1  0  0  0  0  0999 V2000
  -35.3690   39.7800   11.2210 O   0  0  0  0  0  0  0  0  0  0  0  0
  -36.7910   37.8540    9.7770 O   0  0  0  0  0  0  0  0  0  0  0  0
  -36.7850   43.6020   13.3920 O   0  0  0  0  0  0  0  0  0  0  0  0
  -35.0040   37.6530   14.6730 O   0  0  0  0  0  0  0  0  0  0  0  0
  -35.4110   37.5360   12.3330 C   0  0  2  0  0  3  0  0  0  0  0  0
  -34.8860   38.4310   11.2120 C   0  0  1  0  0  3  0  0  0  0  0  0
  -35.6900   40.3420   12.4010 C   0  0  0  0  0  0  0  0  0  0  0  0
  -36.8330   37.1380   12.1060 C   0  0  0  0  0  0  0  0  0  0  0  0
  -35.3060   38.2610   13.6750 C   0  0  0  0  0  0  0  0  0  0  0  0
  -35.3750   37.9150    9.8550 C   0  0  0  0  0  2  0  0  0  0  0  0
  -36.0890   41.6690   12.3510 C   0  0  0  0  0  0  0  0  0  0  0  0
  -35.6290   39.6790   13.6430 C   0  0  0  0  0  0  0  0  0  0  0  0
  -36.2730   42.6250   11.2270 C   0  0  0  0  0  2  0  0  0  0  0  0
  -36.7170   43.9200   11.9670 C   0  0  2  0  0  3  0  0  0  0  0  0
  -36.4010   42.3150   13.5610 C   0  0  0  0  0  0  0  0  0  0  0  0
  -37.4300   37.3240   10.8550 C   0  0  0  0  0  0  0  0  0  0  0  0
  -35.9280   40.3670   14.8250 C   0  0  0  0  0  3  0  0  0  0  0  0
  -37.5960   36.5840   13.1370 C   0  0  0  0  0  3  0  0  0  0  0  0
  -36.3210   41.7000   14.8100 C   0  0  0  0  0  3  0  0  0  0  0  0
  -38.7700   37.0010   10.6130 C   0  0  0  0  0  3  0  0  0  0  0  0
  -38.9270   36.2550   12.9160 C   0  0  0  0  0  0  0  0  0  0  0  0
  -39.5160   36.4630   11.6560 C   0  0  0  0  0  0  0  0  0  0  0  0
  -35.7310   45.0370   11.7870 C   0  0  0  0  0  0  0  0  0  0  0  0
  -35.1580   45.1860   10.4230 C   0  0  0  0  0  1  0  0  0  0  0  0
  -35.4180   45.8400   12.8060 C   0  0  0  0  0  2  0  0  0  0  0  0
  -39.6100   35.6400   13.9380 O   0  0  0  0  0  0  0  0  0  0  0  0
  -40.1050   36.5760   14.8950 C   0  0  0  0  0  1  0  0  0  0  0  0
  -40.8450   36.2610   11.4060 O   0  0  0  0  0  0  0  0  0  0  0  0
  -41.6520   37.4210   11.5970 C   0  0  0  0  0  1  0  0  0  0  0  0
  1  7  1  0  0  0  0
  2 10  1  0  0  0  0
  2 16  1  0  0  0  0
  3 15  1  0  0  0  0
  5  8  1  6  0  0  0
  5  9  1  0  0  0  0
  6 10  1  6  0  0  0
  6  1  1  0  0  0  0
  6  5  1  0  0  0  0
  7 12  1  0  0  0  0
  8 18  1  0  0  0  0
  9  4  2  0  0  0  0
 11  7  2  0  0  0  0
 11 15  1  0  0  0  0
 12  9  1  0  0  0  0
 12 17  2  0  0  0  0
 13 14  1  0  0  0  0
 13 11  1  0  0  0  0
 14 23  1  1  0  0  0
 14  3  1  0  0  0  0
 15 19  2  0  0  0  0
 16  8  2  0  0  0  0
 19 17  1  0  0  0  0
 20 16  1  0  0  0  0
 20 22  2  0  0  0  0
 21 18  2  0  0  0  0
 21 26  1  0  0  0  0
 22 21  1  0  0  0  0
 23 25  2  0  0  0  0
 24 23  1  0  0  0  0
 26 27  1  0  0  0  0
 28 29  1  0  0  0  0
 28 22  1  0  0  0  0
M  END
>  <MODEL>
11

>  <REMARK>
 VINA RESULT:    -7.289      1.707      2.441
 INTER + INTRA:          -8.910
 INTER:                  -8.386
 INTRA:                  -0.524
 UNBOUND:                -0.343
  3 active torsions:
  status: ('A' for Active; 'I' for Inactive)
    1  A    between atoms: O5_5  and  C18_24 
    2  A    between atoms: O6_6  and  C19_25 
    3  A    between atoms: C10_16  and  C16_22 

>  <TORSDO>
F 3

$$$$
./Rotenona.pdbqt
 OpenBabel10282519553D

 29 33  0  0  1  0  0  0  0  0999 V2000
  -44.6880   25.7660   -0.9260 O   0  0  0  0  0  0  0  0  0  0  0  0
  -43.4020   26.9700    1.2450 O   0  0  0  0  0  0  0  0  0  0  0  0
  -43.1980   22.6430   -3.9830 O   0  0  0  0  0  0  0  0  0  0  0  0
  -46.8190   23.0290    1.2070 O   0  0  0  0  0  0  0  0  0  0  0  0
  -45.6420   25.0940    1.2910 C   0  0  2  0  0  3  0  0  0  0  0  0
  -45.4730   26.1570    0.2080 C   0  0  1  0  0  3  0  0  0  0  0  0
  -44.6790   24.4690   -1.2840 C   0  0  0  0  0  0  0  0  0  0  0  0
  -44.3930   24.9090    2.0890 C   0  0  0  0  0  0  0  0  0  0  0  0
  -46.0290   23.7570    0.6580 C   0  0  0  0  0  0  0  0  0  0  0  0
  -44.6820   27.3480    0.7590 C   0  0  0  0  0  2  0  0  0  0  0  0
  -43.9550   24.1620   -2.4270 C   0  0  0  0  0  0  0  0  0  0  0  0
  -45.3560   23.4440   -0.5930 C   0  0  0  0  0  0  0  0  0  0  0  0
  -43.1330   24.9880   -3.3520 C   0  0  0  0  0  2  0  0  0  0  0  0
  -42.6620   23.9370   -4.3990 C   0  0  2  0  0  3  0  0  0  0  0  0
  -43.9420   22.8260   -2.8670 C   0  0  0  0  0  0  0  0  0  0  0  0
  -43.3580   25.8480    2.0130 C   0  0  0  0  0  0  0  0  0  0  0  0
  -45.3330   22.1310   -1.0790 C   0  0  0  0  0  3  0  0  0  0  0  0
  -44.2270   23.7950    2.9150 C   0  0  0  0  0  3  0  0  0  0  0  0
  -44.6240   21.7930   -2.2270 C   0  0  0  0  0  3  0  0  0  0  0  0
  -42.1570   25.6920    2.7130 C   0  0  0  0  0  3  0  0  0  0  0  0
  -43.0420   23.6230    3.6190 C   0  0  0  0  0  0  0  0  0  0  0  0
  -42.0060   24.5690    3.5200 C   0  0  0  0  0  0  0  0  0  0  0  0
  -43.1860   24.2380   -5.7720 C   0  0  0  0  0  0  0  0  0  0  0  0
  -43.7920   25.5830   -5.9580 C   0  0  0  0  0  1  0  0  0  0  0  0
  -43.0860   23.3360   -6.7520 C   0  0  0  0  0  2  0  0  0  0  0  0
  -42.9610   22.5530    4.4780 O   0  0  0  0  0  0  0  0  0  0  0  0
  -43.8580   21.5030    4.1170 C   0  0  0  0  0  1  0  0  0  0  0  0
  -40.7810   24.4040    4.1020 O   0  0  0  0  0  0  0  0  0  0  0  0
  -40.6350   25.0850    5.3470 C   0  0  0  0  0  1  0  0  0  0  0  0
  1  6  1  0  0  0  0
  2 16  1  0  0  0  0
  3 15  1  0  0  0  0
  5  9  1  6  0  0  0
  5  8  1  0  0  0  0
  6 10  1  1  0  0  0
  6  5  1  0  0  0  0
  7  1  1  0  0  0  0
  7 12  1  0  0  0  0
  8 18  1  0  0  0  0
  9  4  2  0  0  0  0
 10  2  1  0  0  0  0
 11  7  2  0  0  0  0
 12  9  1  0  0  0  0
 13 11  1  0  0  0  0
 14 23  1  6  0  0  0
 14  3  1  0  0  0  0
 14 13  1  0  0  0  0
 15 11  1  0  0  0  0
 15 19  2  0  0  0  0
 16  8  2  0  0  0  0
 16 20  1  0  0  0  0
 17 12  2  0  0  0  0
 18 21  2  0  0  0  0
 19 17  1  0  0  0  0
 20 22  2  0  0  0  0
 21 26  1  0  0  0  0
 22 21  1  0  0  0  0
 22 28  1  0  0  0  0
 24 23  1  0  0  0  0
 25 23  2  0  0  0  0
 27 26  1  0  0  0  0
 28 29  1  0  0  0  0
M  END
>  <MODEL>
12

>  <REMARK>
 VINA RESULT:    -7.282     17.820     21.587
 INTER + INTRA:          -8.902
 INTER:                  -8.463
 INTRA:                  -0.439
 UNBOUND:                -0.343
  3 active torsions:
  status: ('A' for Active; 'I' for Inactive)
    1  A    between atoms: O5_5  and  C18_24 
    2  A    between atoms: O6_6  and  C19_25 
    3  A    between atoms: C10_16  and  C16_22 

>  <TORSDO>
F 3

$$$$
./Rotenona.pdbqt
 OpenBabel10282519553D

 29 33  0  0  1  0  0  0  0  0999 V2000
  -44.3850   27.7990    2.3190 O   0  0  0  0  0  0  0  0  0  0  0  0
  -43.9750   30.5370    1.9280 O   0  0  0  0  0  0  0  0  0  0  0  0
  -42.5170   24.1240    0.2390 O   0  0  0  0  0  0  0  0  0  0  0  0
  -42.0640   27.4120    5.6420 O   0  0  0  0  0  0  0  0  0  0  0  0
  -43.2750   28.9240    4.2620 C   0  0  2  0  0  3  0  0  0  0  0  0
  -44.5370   28.6840    3.4360 C   0  0  1  0  0  3  0  0  0  0  0  0
  -43.4640   26.8210    2.3930 C   0  0  0  0  0  0  0  0  0  0  0  0
  -42.3080   29.8170    3.5550 C   0  0  0  0  0  0  0  0  0  0  0  0
  -42.5890   27.5930    4.5700 C   0  0  0  0  0  0  0  0  0  0  0  0
  -44.9820   29.9870    2.7650 C   0  0  0  0  0  2  0  0  0  0  0  0
  -43.4100   25.9580    1.3090 C   0  0  0  0  0  0  0  0  0  0  0  0
  -42.5940   26.6250    3.4830 C   0  0  0  0  0  0  0  0  0  0  0  0
  -44.1580   25.9030    0.0250 C   0  0  0  0  0  2  0  0  0  0  0  0
  -43.5490   24.6430   -0.6560 C   0  0  2  0  0  3  0  0  0  0  0  0
  -42.4880   24.8950    1.3510 C   0  0  0  0  0  0  0  0  0  0  0  0
  -42.7140   30.5570    2.4390 C   0  0  0  0  0  0  0  0  0  0  0  0
  -41.7070   25.5420    3.4930 C   0  0  0  0  0  3  0  0  0  0  0  0
  -40.9830   29.9210    3.9830 C   0  0  0  0  0  3  0  0  0  0  0  0
  -41.6340   24.6530    2.4260 C   0  0  0  0  0  3  0  0  0  0  0  0
  -41.8300   31.3730    1.7250 C   0  0  0  0  0  3  0  0  0  0  0  0
  -40.0910   30.7280    3.2880 C   0  0  0  0  0  0  0  0  0  0  0  0
  -40.5110   31.4540    2.1590 C   0  0  0  0  0  0  0  0  0  0  0  0
  -44.5710   23.5640   -0.8620 C   0  0  0  0  0  0  0  0  0  0  0  0
  -44.0810   22.1670   -0.7190 C   0  0  0  0  0  1  0  0  0  0  0  0
  -45.8400   23.8720   -1.1400 C   0  0  0  0  0  2  0  0  0  0  0  0
  -38.8210   30.8580    3.7970 O   0  0  0  0  0  0  0  0  0  0  0  0
  -38.8020   31.6010    5.0150 C   0  0  0  0  0  1  0  0  0  0  0  0
  -39.6600   32.1780    1.3730 O   0  0  0  0  0  0  0  0  0  0  0  0
  -39.5570   33.5520    1.7440 C   0  0  0  0  0  1  0  0  0  0  0  0
  1  7  1  0  0  0  0
  1  6  1  0  0  0  0
  2 16  1  0  0  0  0
  2 10  1  0  0  0  0
  3 15  1  0  0  0  0
  5  8  1  6  0  0  0
  5  9  1  0  0  0  0
  6 10  1  6  0  0  0
  6  5  1  0  0  0  0
  7 12  1  0  0  0  0
  8 18  1  0  0  0  0
  9  4  2  0  0  0  0
 11 15  1  0  0  0  0
 11  7  2  0  0  0  0
 12 17  2  0  0  0  0
 12  9  1  0  0  0  0
 13 11  1  0  0  0  0
 14 23  1  1  0  0  0
 14 13  1  0  0  0  0
 14  3  1  0  0  0  0
 15 19  2  0  0  0  0
 16  8  2  0  0  0  0
 19 17  1  0  0  0  0
 20 22  2  0  0  0  0
 20 16  1  0  0  0  0
 21 26  1  0  0  0  0
 21 18  2  0  0  0  0
 22 21  1  0  0  0  0
 23 24  1  0  0  0  0
 25 23  2  0  0  0  0
 26 27  1  0  0  0  0
 28 29  1  0  0  0  0
 28 22  1  0  0  0  0
M  END
>  <MODEL>
13

>  <REMARK>
 VINA RESULT:    -7.233     13.511     17.701
 INTER + INTRA:          -8.844
 INTER:                  -8.371
 INTRA:                  -0.473
 UNBOUND:                -0.343
  3 active torsions:
  status: ('A' for Active; 'I' for Inactive)
    1  A    between atoms: O5_5  and  C18_24 
    2  A    between atoms: O6_6  and  C19_25 
    3  A    between atoms: C10_16  and  C16_22 

>  <TORSDO>
F 3

$$$$
./Rotenona.pdbqt
 OpenBabel10282519553D

 29 33  0  0  1  0  0  0  0  0999 V2000
   -5.6160   34.7280   10.3240 O   0  0  0  0  0  0  0  0  0  0  0  0
   -8.0000   36.1580   10.0300 O   0  0  0  0  0  0  0  0  0  0  0  0
   -2.2230   33.8350    7.3230 O   0  0  0  0  0  0  0  0  0  0  0  0
   -3.5080   37.6500   12.2210 O   0  0  0  0  0  0  0  0  0  0  0  0
   -5.6750   36.8470   11.6600 C   0  0  2  0  0  3  0  0  0  0  0  0
   -6.1550   35.4100   11.4640 C   0  0  1  0  0  3  0  0  0  0  0  0
   -4.3850   35.0640    9.8960 C   0  0  0  0  0  0  0  0  0  0  0  0
   -6.3000   37.7810   10.6760 C   0  0  0  0  0  0  0  0  0  0  0  0
   -4.1540   36.9160   11.5150 C   0  0  0  0  0  0  0  0  0  0  0  0
   -7.6600   35.3930   11.1760 C   0  0  0  0  0  2  0  0  0  0  0  0
   -3.8920   34.3240    8.8320 C   0  0  0  0  0  0  0  0  0  0  0  0
   -3.5920   36.0800   10.4640 C   0  0  0  0  0  0  0  0  0  0  0  0
   -4.4710   33.2240    8.0150 C   0  0  0  0  0  2  0  0  0  0  0  0
   -3.3100   32.9040    7.0280 C   0  0  2  0  0  3  0  0  0  0  0  0
   -2.5950   34.6100    8.3680 C   0  0  0  0  0  0  0  0  0  0  0  0
   -7.4110   37.3800    9.9260 C   0  0  0  0  0  0  0  0  0  0  0  0
   -2.2980   36.3170    9.9850 C   0  0  0  0  0  3  0  0  0  0  0  0
   -5.7840   39.0640   10.4770 C   0  0  0  0  0  3  0  0  0  0  0  0
   -1.7710   35.5870    8.9250 C   0  0  0  0  0  3  0  0  0  0  0  0
   -8.0010   38.2100    8.9660 C   0  0  0  0  0  3  0  0  0  0  0  0
   -6.3570   39.9030    9.5300 C   0  0  0  0  0  0  0  0  0  0  0  0
   -7.4640   39.4790    8.7740 C   0  0  0  0  0  0  0  0  0  0  0  0
   -2.7880   31.5080    7.2070 C   0  0  0  0  0  0  0  0  0  0  0  0
   -3.7820   30.4930    7.6460 C   0  0  0  0  0  1  0  0  0  0  0  0
   -1.5060   31.2240    6.9650 C   0  0  0  0  0  2  0  0  0  0  0  0
   -5.8630   41.1810    9.4300 O   0  0  0  0  0  0  0  0  0  0  0  0
   -4.5950   41.3210   10.0710 C   0  0  0  0  0  1  0  0  0  0  0  0
   -8.0040   40.2150    7.7570 O   0  0  0  0  0  0  0  0  0  0  0  0
   -9.1660   40.9550    8.1310 C   0  0  0  0  0  1  0  0  0  0  0  0
  1  6  1  0  0  0  0
  2 10  1  0  0  0  0
  3 15  1  0  0  0  0
  5  8  1  6  0  0  0
  6 10  1  6  0  0  0
  6  5  1  0  0  0  0
  7  1  1  0  0  0  0
  7 12  1  0  0  0  0
  9  5  1  0  0  0  0
  9  4  2  0  0  0  0
 11  7  2  0  0  0  0
 12  9  1  0  0  0  0
 13 11  1  0  0  0  0
 14 23  1  1  0  0  0
 14  3  1  0  0  0  0
 14 13  1  0  0  0  0
 15 11  1  0  0  0  0
 15 19  2  0  0  0  0
 16  2  1  0  0  0  0
 16  8  2  0  0  0  0
 17 12  2  0  0  0  0
 18  8  1  0  0  0  0
 19 17  1  0  0  0  0
 20 16  1  0  0  0  0
 21 18  2  0  0  0  0
 22 20  2  0  0  0  0
 22 21  1  0  0  0  0
 23 24  1  0  0  0  0
 25 23  2  0  0  0  0
 26 21  1  0  0  0  0
 26 27  1  0  0  0  0
 28 29  1  0  0  0  0
 28 22  1  0  0  0  0
M  END
>  <MODEL>
14

>  <REMARK>
 VINA RESULT:    -7.188     29.432     32.337
 INTER + INTRA:          -8.792
 INTER:                  -8.347
 INTRA:                  -0.445
 UNBOUND:                -0.343
  3 active torsions:
  status: ('A' for Active; 'I' for Inactive)
    1  A    between atoms: O5_5  and  C18_24 
    2  A    between atoms: O6_6  and  C19_25 
    3  A    between atoms: C10_16  and  C16_22 

>  <TORSDO>
F 3

$$$$
./Rotenona.pdbqt
 OpenBabel10282519553D

 29 33  0  0  1  0  0  0  0  0999 V2000
  -43.2520   29.4210    3.2020 O   0  0  0  0  0  0  0  0  0  0  0  0
  -44.1480   27.1930    1.7700 O   0  0  0  0  0  0  0  0  0  0  0  0
  -41.1170   33.2690    1.8050 O   0  0  0  0  0  0  0  0  0  0  0  0
  -46.8640   31.2630    3.5780 O   0  0  0  0  0  0  0  0  0  0  0  0
  -45.7480   29.2050    3.1600 C   0  0  2  0  0  3  0  0  0  0  0  0
  -44.4000   28.7100    3.6830 C   0  0  1  0  0  3  0  0  0  0  0  0
  -43.3870   30.7220    2.8880 C   0  0  0  0  0  0  0  0  0  0  0  0
  -45.9710   28.8110    1.7360 C   0  0  0  0  0  0  0  0  0  0  0  0
  -45.8260   30.7270    3.2730 C   0  0  0  0  0  0  0  0  0  0  0  0
  -44.1360   27.2840    3.1870 C   0  0  0  0  0  2  0  0  0  0  0  0
  -42.2270   31.3720    2.4920 C   0  0  0  0  0  0  0  0  0  0  0  0
  -44.5980   31.4380    2.9540 C   0  0  0  0  0  0  0  0  0  0  0  0
  -40.8260   30.9090    2.3050 C   0  0  0  0  0  2  0  0  0  0  0  0
  -40.1050   32.2170    1.8670 C   0  0  2  0  0  3  0  0  0  0  0  0
  -42.3050   32.7430    2.1870 C   0  0  0  0  0  0  0  0  0  0  0  0
  -45.1610   27.8420    1.1340 C   0  0  0  0  0  0  0  0  0  0  0  0
  -44.6250   32.8070    2.6610 C   0  0  0  0  0  3  0  0  0  0  0  0
  -46.9800   29.4070    0.9770 C   0  0  0  0  0  3  0  0  0  0  0  0
  -43.4780   33.4900    2.2700 C   0  0  0  0  0  3  0  0  0  0  0  0
  -45.3120   27.4740   -0.2070 C   0  0  0  0  0  3  0  0  0  0  0  0
  -47.1460   29.0540   -0.3560 C   0  0  0  0  0  0  0  0  0  0  0  0
  -46.3140   28.0890   -0.9500 C   0  0  0  0  0  0  0  0  0  0  0  0
  -39.0570   32.6390    2.8550 C   0  0  0  0  0  0  0  0  0  0  0  0
  -38.9000   31.7670    4.0500 C   0  0  0  0  0  1  0  0  0  0  0  0
  -38.3160   33.7280    2.6390 C   0  0  0  0  0  2  0  0  0  0  0  0
  -48.2030   29.6110   -1.0360 O   0  0  0  0  0  0  0  0  0  0  0  0
  -49.4520   29.3540   -0.3940 C   0  0  0  0  0  1  0  0  0  0  0  0
  -46.3570   27.7770   -2.2800 O   0  0  0  0  0  0  0  0  0  0  0  0
  -45.4360   28.5180   -3.0780 C   0  0  0  0  0  1  0  0  0  0  0  0
  1  6  1  0  0  0  0
  2 10  1  0  0  0  0
  3 14  1  0  0  0  0
  3 15  1  0  0  0  0
  5  8  1  6  0  0  0
  5  9  1  0  0  0  0
  5  6  1  0  0  0  0
  6 10  1  6  0  0  0
  7 12  1  0  0  0  0
  7  1  1  0  0  0  0
  9  4  2  0  0  0  0
 11  7  2  0  0  0  0
 12  9  1  0  0  0  0
 13 11  1  0  0  0  0
 14 13  1  0  0  0  0
 14 23  1  1  0  0  0
 15 19  2  0  0  0  0
 15 11  1  0  0  0  0
 16  8  1  0  0  0  0
 16  2  1  0  0  0  0
 17 12  2  0  0  0  0
 18  8  2  0  0  0  0
 19 17  1  0  0  0  0
 20 16  2  0  0  0  0
 21 18  1  0  0  0  0
 22 21  2  0  0  0  0
 22 20  1  0  0  0  0
 23 24  1  0  0  0  0
 25 23  2  0  0  0  0
 26 27  1  0  0  0  0
 26 21  1  0  0  0  0
 28 22  1  0  0  0  0
 29 28  1  0  0  0  0
M  END
>  <MODEL>
15

>  <REMARK>
 VINA RESULT:    -7.116     13.363     16.717
 INTER + INTRA:          -8.706
 INTER:                  -8.245
 INTRA:                  -0.461
 UNBOUND:                -0.343
  3 active torsions:
  status: ('A' for Active; 'I' for Inactive)
    1  A    between atoms: O5_5  and  C18_24 
    2  A    between atoms: O6_6  and  C19_25 
    3  A    between atoms: C10_16  and  C16_22 

>  <TORSDO>
F 3

$$$$
./Rotenona.pdbqt
 OpenBabel10282519553D

 29 33  0  0  1  0  0  0  0  0999 V2000
   -4.6490   36.7720    8.0620 O   0  0  0  0  0  0  0  0  0  0  0  0
   -4.2280   34.5700    6.3910 O   0  0  0  0  0  0  0  0  0  0  0  0
   -7.0380   37.1860   11.9920 O   0  0  0  0  0  0  0  0  0  0  0  0
   -1.0530   36.6500    9.9690 O   0  0  0  0  0  0  0  0  0  0  0  0
   -2.2710   35.9830    8.0380 C   0  0  2  0  0  3  0  0  0  0  0  0
   -3.4220   36.6910    7.3260 C   0  0  1  0  0  3  0  0  0  0  0  0
   -4.5910   36.8210    9.4060 C   0  0  0  0  0  0  0  0  0  0  0  0
   -2.4670   34.5020    8.0750 C   0  0  0  0  0  0  0  0  0  0  0  0
   -2.1420   36.5030    9.4700 C   0  0  0  0  0  0  0  0  0  0  0  0
   -3.8370   35.8990    6.0820 C   0  0  0  0  0  2  0  0  0  0  0  0
   -5.8060   36.9650   10.0590 C   0  0  0  0  0  0  0  0  0  0  0  0
   -3.4010   36.7530   10.1560 C   0  0  0  0  0  0  0  0  0  0  0  0
   -7.2090   37.0460    9.5720 C   0  0  0  0  0  2  0  0  0  0  0  0
   -8.0060   37.2200   10.8970 C   0  0  2  0  0  3  0  0  0  0  0  0
   -5.7990   37.0570   11.4620 C   0  0  0  0  0  0  0  0  0  0  0  0
   -3.4280   33.8940    7.2600 C   0  0  0  0  0  0  0  0  0  0  0  0
   -3.4380   36.8710   11.5510 C   0  0  0  0  0  3  0  0  0  0  0  0
   -1.7060   33.6990    8.9280 C   0  0  0  0  0  3  0  0  0  0  0  0
   -4.6390   37.0250   12.2350 C   0  0  0  0  0  3  0  0  0  0  0  0
   -3.6700   32.5170    7.2930 C   0  0  0  0  0  3  0  0  0  0  0  0
   -1.9310   32.3290    8.9740 C   0  0  0  0  0  0  0  0  0  0  0  0
   -2.9110   31.7360    8.1580 C   0  0  0  0  0  0  0  0  0  0  0  0
   -8.7250   38.5360   10.9530 C   0  0  0  0  0  0  0  0  0  0  0  0
   -9.8510   38.6220   11.9200 C   0  0  0  0  0  1  0  0  0  0  0  0
   -8.3420   39.5540   10.1790 C   0  0  0  0  0  2  0  0  0  0  0  0
   -1.1020   31.5740    9.7700 O   0  0  0  0  0  0  0  0  0  0  0  0
    0.1060   31.2130    9.1010 C   0  0  0  0  0  1  0  0  0  0  0  0
   -3.2510   30.4140    8.2350 O   0  0  0  0  0  0  0  0  0  0  0  0
   -2.8270   29.6420    7.1120 C   0  0  0  0  0  1  0  0  0  0  0  0
  1  7  1  0  0  0  0
  2 16  1  0  0  0  0
  5  8  1  1  0  0  0
  5  9  1  0  0  0  0
  6 10  1  6  0  0  0
  6  5  1  0  0  0  0
  6  1  1  0  0  0  0
  7 11  2  0  0  0  0
  7 12  1  0  0  0  0
  8 18  1  0  0  0  0
  9  4  2  0  0  0  0
  9 12  1  0  0  0  0
 10  2  1  0  0  0  0
 11 15  1  0  0  0  0
 12 17  2  0  0  0  0
 13 11  1  0  0  0  0
 13 14  1  0  0  0  0
 14 23  1  6  0  0  0
 14  3  1  0  0  0  0
 15  3  1  0  0  0  0
 15 19  2  0  0  0  0
 16 20  1  0  0  0  0
 16  8  2  0  0  0  0
 17 19  1  0  0  0  0
 18 21  2  0  0  0  0
 20 22  2  0  0  0  0
 21 26  1  0  0  0  0
 22 28  1  0  0  0  0
 22 21  1  0  0  0  0
 23 24  1  0  0  0  0
 25 23  2  0  0  0  0
 27 26  1  0  0  0  0
 29 28  1  0  0  0  0
M  END
>  <MODEL>
16

>  <REMARK>
 VINA RESULT:    -7.091     30.413     32.810
 INTER + INTRA:          -8.678
 INTER:                  -8.249
 INTRA:                  -0.429
 UNBOUND:                -0.343
  3 active torsions:
  status: ('A' for Active; 'I' for Inactive)
    1  A    between atoms: O5_5  and  C18_24 
    2  A    between atoms: O6_6  and  C19_25 
    3  A    between atoms: C10_16  and  C16_22 

>  <TORSDO>
F 3

$$$$
./Rotenona.pdbqt
 OpenBabel10282519553D

 29 33  0  0  1  0  0  0  0  0999 V2000
  -22.5360    0.0690   14.8900 O   0  0  0  0  0  0  0  0  0  0  0  0
  -24.4980   -1.7860   15.6170 O   0  0  0  0  0  0  0  0  0  0  0  0
  -21.1080    1.5060   10.7410 O   0  0  0  0  0  0  0  0  0  0  0  0
  -24.7390    3.4250   15.5710 O   0  0  0  0  0  0  0  0  0  0  0  0
  -24.5040    1.1060   16.0420 C   0  0  2  0  0  3  0  0  0  0  0  0
  -23.2360    0.2570   16.1260 C   0  0  1  0  0  3  0  0  0  0  0  0
  -22.6080    1.0350   13.9560 C   0  0  0  0  0  0  0  0  0  0  0  0
  -25.6290    0.3620   15.3980 C   0  0  0  0  0  0  0  0  0  0  0  0
  -24.2290    2.3810   15.2440 C   0  0  0  0  0  0  0  0  0  0  0  0
  -23.5910   -1.1790   16.5250 C   0  0  0  0  0  2  0  0  0  0  0  0
  -21.8570    0.8250   12.8090 C   0  0  0  0  0  0  0  0  0  0  0  0
  -23.3670    2.2140   14.0840 C   0  0  0  0  0  0  0  0  0  0  0  0
  -20.9840   -0.2960   12.3670 C   0  0  0  0  0  2  0  0  0  0  0  0
  -20.4790    0.2090   10.9840 C   0  0  2  0  0  3  0  0  0  0  0  0
  -21.8680    1.8210   11.8160 C   0  0  0  0  0  0  0  0  0  0  0  0
  -25.5540   -1.0230   15.2230 C   0  0  0  0  0  0  0  0  0  0  0  0
  -23.3330    3.1890   13.0790 C   0  0  0  0  0  3  0  0  0  0  0  0
  -26.7680    1.0340   14.9490 C   0  0  0  0  0  3  0  0  0  0  0  0
  -22.5820    3.0130   11.9220 C   0  0  0  0  0  3  0  0  0  0  0  0
  -26.5680   -1.7500   14.5900 C   0  0  0  0  0  3  0  0  0  0  0  0
  -27.7860    0.3300   14.3190 C   0  0  0  0  0  0  0  0  0  0  0  0
  -27.6890   -1.0610   14.1380 C   0  0  0  0  0  0  0  0  0  0  0  0
  -18.9910    0.4040   10.9650 C   0  0  0  0  0  0  0  0  0  0  0  0
  -18.3120    0.1050    9.6760 C   0  0  0  0  0  1  0  0  0  0  0  0
  -18.3470    0.8350   12.0520 C   0  0  0  0  0  2  0  0  0  0  0  0
  -28.9190    1.0240   13.9680 O   0  0  0  0  0  0  0  0  0  0  0  0
  -28.6840    1.9280   12.8890 C   0  0  0  0  0  1  0  0  0  0  0  0
  -28.6030   -1.7920   13.4340 O   0  0  0  0  0  0  0  0  0  0  0  0
  -28.1430   -3.0910   13.0610 C   0  0  0  0  0  1  0  0  0  0  0  0
  1  6  1  0  0  0  0
  2 10  1  0  0  0  0
  3 14  1  0  0  0  0
  3 15  1  0  0  0  0
  5  9  1  6  0  0  0
  5  6  1  0  0  0  0
  6 10  1  6  0  0  0
  7 12  1  0  0  0  0
  7  1  1  0  0  0  0
  8  5  1  0  0  0  0
  9  4  2  0  0  0  0
 11  7  2  0  0  0  0
 12  9  1  0  0  0  0
 13 11  1  0  0  0  0
 14 23  1  1  0  0  0
 14 13  1  0  0  0  0
 15 19  2  0  0  0  0
 15 11  1  0  0  0  0
 16  8  1  0  0  0  0
 16  2  1  0  0  0  0
 17 12  2  0  0  0  0
 18  8  2  0  0  0  0
 19 17  1  0  0  0  0
 20 16  2  0  0  0  0
 21 18  1  0  0  0  0
 22 21  2  0  0  0  0
 22 20  1  0  0  0  0
 23 25  2  0  0  0  0
 24 23  1  0  0  0  0
 26 21  1  0  0  0  0
 27 26  1  0  0  0  0
 28 22  1  0  0  0  0
 29 28  1  0  0  0  0
M  END
>  <MODEL>
17

>  <REMARK>
 VINA RESULT:    -7.003     38.918     41.666
 INTER + INTRA:          -8.574
 INTER:                  -8.198
 INTRA:                  -0.376
 UNBOUND:                -0.343
  3 active torsions:
  status: ('A' for Active; 'I' for Inactive)
    1  A    between atoms: O5_5  and  C18_24 
    2  A    between atoms: O6_6  and  C19_25 
    3  A    between atoms: C10_16  and  C16_22 

>  <TORSDO>
F 3

$$$$
./Rotenona.pdbqt
 OpenBabel10282519553D

 29 33  0  0  1  0  0  0  0  0999 V2000
  -42.5970   28.6420    3.7560 O   0  0  0  0  0  0  0  0  0  0  0  0
  -42.6280   25.8590    3.4960 O   0  0  0  0  0  0  0  0  0  0  0  0
  -40.3510   31.8890    1.3600 O   0  0  0  0  0  0  0  0  0  0  0  0
  -46.1420   29.3620    1.8860 O   0  0  0  0  0  0  0  0  0  0  0  0
  -44.8100   27.7400    3.0040 C   0  0  2  0  0  3  0  0  0  0  0  0
  -43.7860   27.9300    4.1220 C   0  0  1  0  0  3  0  0  0  0  0  0
  -42.6760   29.5710    2.7840 C   0  0  0  0  0  0  0  0  0  0  0  0
  -44.3710   26.7070    2.0180 C   0  0  0  0  0  0  0  0  0  0  0  0
  -45.0390   29.0620    2.2720 C   0  0  0  0  0  0  0  0  0  0  0  0
  -43.2320   26.5720    4.5640 C   0  0  0  0  0  2  0  0  0  0  0  0
  -41.5090   30.2710    2.5210 C   0  0  0  0  0  0  0  0  0  0  0  0
  -43.8460   29.8680    2.0590 C   0  0  0  0  0  0  0  0  0  0  0  0
  -40.1340   30.1870    3.0820 C   0  0  0  0  0  2  0  0  0  0  0  0
  -39.3910   31.3060    2.2960 C   0  0  2  0  0  3  0  0  0  0  0  0
  -41.5460   31.2780    1.5390 C   0  0  0  0  0  0  0  0  0  0  0  0
  -43.3140   25.8420    2.3200 C   0  0  0  0  0  0  0  0  0  0  0  0
  -43.8430   30.8940    1.1050 C   0  0  0  0  0  3  0  0  0  0  0  0
  -44.9960   26.5920    0.7740 C   0  0  0  0  0  3  0  0  0  0  0  0
  -42.6920   31.6210    0.8240 C   0  0  0  0  0  3  0  0  0  0  0  0
  -42.8470   24.8890    1.4090 C   0  0  0  0  0  3  0  0  0  0  0  0
  -44.5480   25.6510   -0.1440 C   0  0  0  0  0  0  0  0  0  0  0  0
  -43.4740   24.7990    0.1710 C   0  0  0  0  0  0  0  0  0  0  0  0
  -38.9020   32.4000    3.2000 C   0  0  0  0  0  0  0  0  0  0  0  0
  -38.7610   32.0410    4.6370 C   0  0  0  0  0  1  0  0  0  0  0  0
  -38.6060   33.6060    2.7120 C   0  0  0  0  0  2  0  0  0  0  0  0
  -45.2470   25.5240   -1.3200 O   0  0  0  0  0  0  0  0  0  0  0  0
  -44.8540   26.4970   -2.2880 C   0  0  0  0  0  1  0  0  0  0  0  0
  -42.9200   23.9280   -0.7250 O   0  0  0  0  0  0  0  0  0  0  0  0
  -43.4850   22.6180   -0.6840 C   0  0  0  0  0  1  0  0  0  0  0  0
  1  6  1  0  0  0  0
  2 10  1  0  0  0  0
  3 15  1  0  0  0  0
  3 14  1  0  0  0  0
  4  9  2  0  0  0  0
  5  8  1  6  0  0  0
  5  6  1  0  0  0  0
  6 10  1  6  0  0  0
  7  1  1  0  0  0  0
  8 16  1  0  0  0  0
  9  5  1  0  0  0  0
 11  7  1  0  0  0  0
 11 13  1  0  0  0  0
 12  9  1  0  0  0  0
 12  7  2  0  0  0  0
 14 13  1  0  0  0  0
 14 23  1  1  0  0  0
 15 11  2  0  0  0  0
 16  2  1  0  0  0  0
 17 12  1  0  0  0  0
 18  8  2  0  0  0  0
 19 17  2  0  0  0  0
 19 15  1  0  0  0  0
 20 16  2  0  0  0  0
 21 22  2  0  0  0  0
 21 18  1  0  0  0  0
 22 20  1  0  0  0  0
 23 24  1  0  0  0  0
 25 23  2  0  0  0  0
 26 21  1  0  0  0  0
 27 26  1  0  0  0  0
 28 29  1  0  0  0  0
 28 22  1  0  0  0  0
M  END
>  <MODEL>
18

>  <REMARK>
 VINA RESULT:    -6.985     13.722     17.117
 INTER + INTRA:          -8.552
 INTER:                  -8.108
 INTRA:                  -0.445
 UNBOUND:                -0.343
  3 active torsions:
  status: ('A' for Active; 'I' for Inactive)
    1  A    between atoms: O5_5  and  C18_24 
    2  A    between atoms: O6_6  and  C19_25 
    3  A    between atoms: C10_16  and  C16_22 

>  <TORSDO>
F 3

$$$$
./Rotenona.pdbqt
 OpenBabel10282519553D

 29 33  0  0  1  0  0  0  0  0999 V2000
  -33.1190   20.5770  -18.3040 O   0  0  0  0  0  0  0  0  0  0  0  0
  -35.2000   18.7880  -17.7680 O   0  0  0  0  0  0  0  0  0  0  0  0
  -32.9950   24.3960  -20.8970 O   0  0  0  0  0  0  0  0  0  0  0  0
  -33.3310   22.6570  -14.8100 O   0  0  0  0  0  0  0  0  0  0  0  0
  -33.8800   20.6250  -15.9180 C   0  0  2  0  0  3  0  0  0  0  0  0
  -33.1380   19.9020  -17.0410 C   0  0  1  0  0  3  0  0  0  0  0  0
  -33.1600   21.9230  -18.3160 C   0  0  0  0  0  0  0  0  0  0  0  0
  -35.3620   20.5530  -16.0940 C   0  0  0  0  0  0  0  0  0  0  0  0
  -33.4560   22.0930  -15.8700 C   0  0  0  0  0  0  0  0  0  0  0  0
  -33.8490   18.5880  -17.3800 C   0  0  0  0  0  2  0  0  0  0  0  0
  -33.0740   22.5200  -19.5650 C   0  0  0  0  0  0  0  0  0  0  0  0
  -33.2660   22.7280  -17.1650 C   0  0  0  0  0  0  0  0  0  0  0  0
  -32.9750   21.9670  -20.9420 C   0  0  0  0  0  2  0  0  0  0  0  0
  -32.8990   23.2580  -21.8080 C   0  0  2  0  0  3  0  0  0  0  0  0
  -33.0750   23.9250  -19.6310 C   0  0  0  0  0  0  0  0  0  0  0  0
  -35.9230   19.6500  -17.0040 C   0  0  0  0  0  0  0  0  0  0  0  0
  -33.2420   24.1240  -17.2750 C   0  0  0  0  0  3  0  0  0  0  0  0
  -36.2120   21.3890  -15.3670 C   0  0  0  0  0  3  0  0  0  0  0  0
  -33.1470   24.7530  -18.5120 C   0  0  0  0  0  3  0  0  0  0  0  0
  -37.3030   19.5790  -17.2270 C   0  0  0  0  0  3  0  0  0  0  0  0
  -37.5850   21.3320  -15.5740 C   0  0  0  0  0  0  0  0  0  0  0  0
  -38.1320   20.4290  -16.5030 C   0  0  0  0  0  0  0  0  0  0  0  0
  -31.5970   23.3630  -22.5470 C   0  0  0  0  0  0  0  0  0  0  0  0
  -31.1040   24.7430  -22.8040 C   0  0  0  0  0  1  0  0  0  0  0  0
  -30.9370   22.2660  -22.9260 C   0  0  0  0  0  2  0  0  0  0  0  0
  -38.3820   22.1180  -14.7770 O   0  0  0  0  0  0  0  0  0  0  0  0
  -37.6540   22.7040  -13.6980 C   0  0  0  0  0  1  0  0  0  0  0  0
  -39.4590   20.3990  -16.8280 O   0  0  0  0  0  0  0  0  0  0  0  0
  -39.9280   19.1120  -17.2260 C   0  0  0  0  0  1  0  0  0  0  0  0
  1  6  1  0  0  0  0
  2 10  1  0  0  0  0
  2 16  1  0  0  0  0
  3 15  1  0  0  0  0
  5  8  1  6  0  0  0
  5  9  1  0  0  0  0
  6 10  1  6  0  0  0
  6  5  1  0  0  0  0
  7  1  1  0  0  0  0
  7 12  1  0  0  0  0
  8 18  1  0  0  0  0
  9  4  2  0  0  0  0
 11  7  2  0  0  0  0
 12  9  1  0  0  0  0
 13 11  1  0  0  0  0
 14 23  1  1  0  0  0
 14 13  1  0  0  0  0
 14  3  1  0  0  0  0
 15 11  1  0  0  0  0
 15 19  2  0  0  0  0
 16  8  2  0  0  0  0
 17 12  2  0  0  0  0
 19 17  1  0  0  0  0
 20 16  1  0  0  0  0
 20 22  2  0  0  0  0
 21 18  2  0  0  0  0
 21 26  1  0  0  0  0
 22 21  1  0  0  0  0
 24 23  1  0  0  0  0
 25 23  2  0  0  0  0
 26 27  1  0  0  0  0
 28 22  1  0  0  0  0
 29 28  1  0  0  0  0
M  END
>  <MODEL>
19

>  <REMARK>
 VINA RESULT:    -6.977     31.877     34.969
 INTER + INTRA:          -8.544
 INTER:                  -8.105
 INTRA:                  -0.439
 UNBOUND:                -0.343
  3 active torsions:
  status: ('A' for Active; 'I' for Inactive)
    1  A    between atoms: O5_5  and  C18_24 
    2  A    between atoms: O6_6  and  C19_25 
    3  A    between atoms: C10_16  and  C16_22 

>  <TORSDO>
F 3

$$$$
./Rotenona.pdbqt
 OpenBabel10282519553D

 29 33  0  0  1  0  0  0  0  0999 V2000
  -44.1960   28.1290    2.2570 O   0  0  0  0  0  0  0  0  0  0  0  0
  -42.8400   29.9380    0.6120 O   0  0  0  0  0  0  0  0  0  0  0  0
  -42.6310   25.0790    5.3500 O   0  0  0  0  0  0  0  0  0  0  0  0
  -45.3460   30.8020    5.1040 O   0  0  0  0  0  0  0  0  0  0  0  0
  -44.6150   30.5240    2.8590 C   0  0  2  0  0  3  0  0  0  0  0  0
  -44.8450   29.3560    1.9020 C   0  0  1  0  0  3  0  0  0  0  0  0
  -43.9840   27.8670    3.5600 C   0  0  0  0  0  0  0  0  0  0  0  0
  -43.2390   31.0920    2.7220 C   0  0  0  0  0  0  0  0  0  0  0  0
  -44.8230   30.0680    4.3030 C   0  0  0  0  0  0  0  0  0  0  0  0
  -44.2320   29.6680    0.5330 C   0  0  0  0  0  2  0  0  0  0  0  0
  -43.4120   26.6360    3.8440 C   0  0  0  0  0  0  0  0  0  0  0  0
  -44.3150   28.7400    4.6140 C   0  0  0  0  0  0  0  0  0  0  0  0
  -42.9380   25.5210    2.9810 C   0  0  0  0  0  2  0  0  0  0  0  0
  -42.4430   24.4820    4.0290 C   0  0  2  0  0  3  0  0  0  0  0  0
  -43.2010   26.2960    5.1930 C   0  0  0  0  0  0  0  0  0  0  0  0
  -42.4440   30.7620    1.6190 C   0  0  0  0  0  0  0  0  0  0  0  0
  -44.1080   28.3530    5.9440 C   0  0  0  0  0  3  0  0  0  0  0  0
  -42.7180   31.9500    3.6920 C   0  0  0  0  0  3  0  0  0  0  0  0
  -43.5450   27.1210    6.2620 C   0  0  0  0  0  3  0  0  0  0  0  0
  -41.1370   31.2410    1.4740 C   0  0  0  0  0  3  0  0  0  0  0  0
  -41.4230   32.4370    3.5650 C   0  0  0  0  0  0  0  0  0  0  0  0
  -40.6310   32.0840    2.4580 C   0  0  0  0  0  0  0  0  0  0  0  0
  -43.2370   23.2090    3.9780 C   0  0  0  0  0  0  0  0  0  0  0  0
  -43.4620   22.6370    2.6240 C   0  0  0  0  0  1  0  0  0  0  0  0
  -43.6870   22.6410    5.0990 C   0  0  0  0  0  2  0  0  0  0  0  0
  -40.9870   33.3400    4.5050 O   0  0  0  0  0  0  0  0  0  0  0  0
  -41.9010   33.4690    5.5930 C   0  0  0  0  0  1  0  0  0  0  0  0
  -39.3190   32.4420    2.3290 O   0  0  0  0  0  0  0  0  0  0  0  0
  -39.1250   33.7300    1.7460 C   0  0  0  0  0  1  0  0  0  0  0  0
  1  7  1  0  0  0  0
  2 16  1  0  0  0  0
  5  8  1  1  0  0  0
  5  9  1  0  0  0  0
  6 10  1  6  0  0  0
  6  1  1  0  0  0  0
  6  5  1  0  0  0  0
  7 11  2  0  0  0  0
  7 12  1  0  0  0  0
  8 18  1  0  0  0  0
  9 12  1  0  0  0  0
  9  4  2  0  0  0  0
 10  2  1  0  0  0  0
 11 15  1  0  0  0  0
 12 17  2  0  0  0  0
 13 11  1  0  0  0  0
 13 14  1  0  0  0  0
 14 23  1  1  0  0  0
 14  3  1  0  0  0  0
 15  3  1  0  0  0  0
 15 19  2  0  0  0  0
 16  8  2  0  0  0  0
 17 19  1  0  0  0  0
 20 16  1  0  0  0  0
 20 22  2  0  0  0  0
 21 18  2  0  0  0  0
 21 26  1  0  0  0  0
 22 21  1  0  0  0  0
 23 25  2  0  0  0  0
 24 23  1  0  0  0  0
 26 27  1  0  0  0  0
 28 22  1  0  0  0  0
 29 28  1  0  0  0  0
M  END
>  <MODEL>
20

>  <REMARK>
 VINA RESULT:    -6.952     12.178     16.752
 INTER + INTRA:          -8.514
 INTER:                  -8.139
 INTRA:                  -0.376
 UNBOUND:                -0.343
  3 active torsions:
  status: ('A' for Active; 'I' for Inactive)
    1  A    between atoms: O5_5  and  C18_24 
    2  A    between atoms: O6_6  and  C19_25 
    3  A    between atoms: C10_16  and  C16_22 

>  <TORSDO>
F 3

$$$$
