./Sanguirubina.pdbqt
 OpenBabel10282519553D

 28 32  0  0  0  0  0  0  0  0999 V2000
  -28.8180   21.6730  -13.1700 O   0  0  0  0  0  0  0  0  0  0  0  0
  -28.2960   23.3500  -11.6230 O   0  0  0  0  0  0  0  0  0  0  0  0
  -32.6610   20.9500  -14.7820 N   0  0  0  0  0  0  0  0  0  0  0  0
  -33.7730   21.7550  -14.4470 C   0  0  0  0  0  0  0  0  0  0  0  0
  -33.5540   22.7970  -13.4980 C   0  0  0  0  0  0  0  0  0  0  0  0
  -32.2720   23.0440  -12.8720 C   0  0  0  0  0  0  0  0  0  0  0  0
  -31.2130   22.1980  -13.3150 C   0  0  0  0  0  0  0  0  0  0  0  0
  -35.1000   21.5940  -15.0190 C   0  0  0  0  0  0  0  0  0  0  0  0
  -31.4600   21.1800  -14.2650 C   0  0  0  0  0  3  0  0  0  0  0  0
  -29.9310   22.3920  -12.8320 C   0  0  0  0  0  0  0  0  0  0  0  0
  -36.1320   22.5000  -14.6680 C   0  0  0  0  0  0  0  0  0  0  0  0
  -31.9280   24.0280  -11.8950 C   0  0  0  0  0  0  0  0  0  0  0  0
  -34.6350   23.6530  -13.1670 C   0  0  0  0  0  3  0  0  0  0  0  0
  -29.6280   23.3960  -11.8920 C   0  0  0  0  0  0  0  0  0  0  0  0
  -35.8750   23.5390  -13.7210 C   0  0  0  0  0  3  0  0  0  0  0  0
  -30.6190   24.2130  -11.3990 C   0  0  0  0  0  3  0  0  0  0  0  0
  -35.5110   20.5830  -15.9400 C   0  0  0  0  0  2  0  0  0  0  0  0
  -32.7250   19.8440  -15.7410 C   0  0  0  0  0  1  0  0  0  0  0  0
  -37.4380   22.4530  -15.2140 C   0  0  0  0  0  3  0  0  0  0  0  0
  -36.7770   20.5200  -16.4830 C   0  0  0  0  0  0  0  0  0  0  0  0
  -37.7770   21.4720  -16.1270 C   0  0  0  0  0  0  0  0  0  0  0  0
  -27.7370   22.2860  -12.4200 C   0  0  0  0  0  2  0  0  0  0  0  0
  -32.9280   24.8090  -11.4490 O   0  0  0  0  0  0  0  0  0  0  0  0
  -32.7870   26.2220  -11.3810 C   0  0  0  0  0  1  0  0  0  0  0  0
  -37.2030   19.5820  -17.3660 O   0  0  0  0  0  0  0  0  0  0  0  0
  -36.2510   18.8010  -18.0680 C   0  0  0  0  0  1  0  0  0  0  0  0
  -39.0570   21.5190  -16.5390 O   0  0  0  0  0  0  0  0  0  0  0  0
  -40.0820   20.9000  -15.7780 C   0  0  0  0  0  1  0  0  0  0  0  0
  1 10  1  0  0  0  0
  1 22  1  0  0  0  0
  3  4  1  0  0  0  0
  3  9  1  0  0  0  0
  4  5  1  0  0  0  0
  5 13  1  0  0  0  0
  5  6  2  0  0  0  0
  6 12  1  0  0  0  0
  7  6  1  0  0  0  0
  7 10  1  0  0  0  0
  8 11  1  0  0  0  0
  8  4  2  0  0  0  0
  9  7  2  0  0  0  0
 10 14  2  0  0  0  0
 11 15  1  0  0  0  0
 12 23  1  0  0  0  0
 12 16  2  0  0  0  0
 14  2  1  0  0  0  0
 14 16  1  0  0  0  0
 15 13  2  0  0  0  0
 17  8  1  0  0  0  0
 18  3  1  0  0  0  0
 19 11  2  0  0  0  0
 20 21  2  0  0  0  0
 20 17  1  0  0  0  0
 21 19  1  0  0  0  0
 22  2  1  0  0  0  0
 23 24  1  0  0  0  0
 25 20  1  0  0  0  0
 26 25  1  0  0  0  0
 27 21  1  0  0  0  0
 27 28  1  0  0  0  0
M  END
>  <MODEL>
1

>  <REMARK>
 VINA RESULT:    -9.503      0.000      0.000
 INTER + INTRA:         -11.432
 INTER:                 -11.170
 INTRA:                  -0.262
 UNBOUND:                -0.262
  3 active torsions:
  status: ('A' for Active; 'I' for Inactive)
    1  A    between atoms: O3_3  and  C9_15 
    2  A    between atoms: O4_4  and  C17_23 
    3  A    between atoms: O5_5  and  C18_24 

>  <TORSDO>
F 3

$$$$
./Sanguirubina.pdbqt
 OpenBabel10282519553D

 28 32  0  0  0  0  0  0  0  0999 V2000
  -38.5150   21.5490  -16.7200 O   0  0  0  0  0  0  0  0  0  0  0  0
  -38.5020   19.8170  -18.2940 O   0  0  0  0  0  0  0  0  0  0  0  0
  -35.2390   22.6550  -14.2810 N   0  0  0  0  0  0  0  0  0  0  0  0
  -33.9870   22.0080  -14.3780 C   0  0  0  0  0  0  0  0  0  0  0  0
  -33.8870   20.9270  -15.3040 C   0  0  0  0  0  0  0  0  0  0  0  0
  -34.9970   20.4720  -16.1150 C   0  0  0  0  0  0  0  0  0  0  0  0
  -36.2000   21.2220  -15.9640 C   0  0  0  0  0  0  0  0  0  0  0  0
  -32.8100   22.3880  -13.6130 C   0  0  0  0  0  0  0  0  0  0  0  0
  -36.2640   22.2960  -15.0450 C   0  0  0  0  0  3  0  0  0  0  0  0
  -37.3020   20.9150  -16.7420 C   0  0  0  0  0  0  0  0  0  0  0  0
  -31.5800   21.7200  -13.8370 C   0  0  0  0  0  0  0  0  0  0  0  0
  -35.0380   19.3940  -17.0510 C   0  0  0  0  0  0  0  0  0  0  0  0
  -32.6360   20.2800  -15.4610 C   0  0  0  0  0  2  0  0  0  0  0  0
  -37.2900   19.8640  -17.6780 C   0  0  0  0  0  0  0  0  0  0  0  0
  -31.5140   20.6470  -14.7780 C   0  0  0  0  0  3  0  0  0  0  0  0
  -36.1700   19.0810  -17.8330 C   0  0  0  0  0  3  0  0  0  0  0  0
  -32.7380   23.4050  -12.6150 C   0  0  0  0  0  3  0  0  0  0  0  0
  -35.4990   23.7800  -13.3810 C   0  0  0  0  0  1  0  0  0  0  0  0
  -30.3720   22.0560  -13.1780 C   0  0  0  0  0  3  0  0  0  0  0  0
  -31.5730   23.7490  -11.9630 C   0  0  0  0  0  0  0  0  0  0  0  0
  -30.3490   23.0720  -12.2410 C   0  0  0  0  0  0  0  0  0  0  0  0
  -39.3070   20.8750  -17.7310 C   0  0  0  0  0  2  0  0  0  0  0  0
  -33.9160   18.6610  -17.1760 O   0  0  0  0  0  0  0  0  0  0  0  0
  -33.8990   17.4610  -17.9370 C   0  0  0  0  0  1  0  0  0  0  0  0
  -31.4620   24.7140  -11.0160 O   0  0  0  0  0  0  0  0  0  0  0  0
  -32.6250   25.1750  -10.3500 C   0  0  0  0  0  1  0  0  0  0  0  0
  -29.1480   23.2660  -11.6660 O   0  0  0  0  0  0  0  0  0  0  0  0
  -27.9550   22.9480  -12.3660 C   0  0  0  0  0  1  0  0  0  0  0  0
  2 22  1  0  0  0  0
  2 14  1  0  0  0  0
  3 18  1  0  0  0  0
  4  3  1  0  0  0  0
  4  8  2  0  0  0  0
  5  4  1  0  0  0  0
  6  7  1  0  0  0  0
  6  5  2  0  0  0  0
  7  9  2  0  0  0  0
  8 17  1  0  0  0  0
  9  3  1  0  0  0  0
 10  1  1  0  0  0  0
 10  7  1  0  0  0  0
 11  8  1  0  0  0  0
 11 19  1  0  0  0  0
 12  6  1  0  0  0  0
 13  5  1  0  0  0  0
 13 15  1  0  0  0  0
 14 10  2  0  0  0  0
 15 11  2  0  0  0  0
 16 14  1  0  0  0  0
 16 12  2  0  0  0  0
 17 20  2  0  0  0  0
 19 21  2  0  0  0  0
 20 25  1  0  0  0  0
 21 20  1  0  0  0  0
 21 27  1  0  0  0  0
 22  1  1  0  0  0  0
 23 12  1  0  0  0  0
 24 23  1  0  0  0  0
 25 26  1  0  0  0  0
 28 27  1  0  0  0  0
M  END
>  <MODEL>
2

>  <REMARK>
 VINA RESULT:    -9.288      1.397      8.187
 INTER + INTRA:         -11.179
 INTER:                 -10.914
 INTRA:                  -0.265
 UNBOUND:                -0.262
  3 active torsions:
  status: ('A' for Active; 'I' for Inactive)
    1  A    between atoms: O3_3  and  C9_15 
    2  A    between atoms: O4_4  and  C17_23 
    3  A    between atoms: O5_5  and  C18_24 

>  <TORSDO>
F 3

$$$$
./Sanguirubina.pdbqt
 OpenBabel10282519553D

 28 32  0  0  0  0  0  0  0  0999 V2000
  -33.6290   24.8960  -11.3930 O   0  0  0  0  0  0  0  0  0  0  0  0
  -31.4060   24.7050  -10.6880 O   0  0  0  0  0  0  0  0  0  0  0  0
  -35.4370   22.5660  -14.4260 N   0  0  0  0  0  0  0  0  0  0  0  0
  -34.7320   21.5440  -15.0990 C   0  0  0  0  0  0  0  0  0  0  0  0
  -33.3620   21.3620  -14.7460 C   0  0  0  0  0  0  0  0  0  0  0  0
  -32.6820   22.1750  -13.7590 C   0  0  0  0  0  0  0  0  0  0  0  0
  -33.5000   23.1490  -13.1150 C   0  0  0  0  0  0  0  0  0  0  0  0
  -35.3190   20.6700  -16.1030 C   0  0  0  0  0  0  0  0  0  0  0  0
  -34.8590   23.2970  -13.4810 C   0  0  0  0  0  3  0  0  0  0  0  0
  -32.9690   23.9340  -12.1070 C   0  0  0  0  0  0  0  0  0  0  0  0
  -34.5440   19.6270  -16.6680 C   0  0  0  0  0  0  0  0  0  0  0  0
  -31.3190   22.1160  -13.3360 C   0  0  0  0  0  0  0  0  0  0  0  0
  -32.6320   20.3190  -15.3690 C   0  0  0  0  0  2  0  0  0  0  0  0
  -31.6270   23.8210  -11.6980 C   0  0  0  0  0  0  0  0  0  0  0  0
  -33.1770   19.4680  -16.2850 C   0  0  0  0  0  3  0  0  0  0  0  0
  -30.7820   22.9280  -12.3140 C   0  0  0  0  0  3  0  0  0  0  0  0
  -36.6510   20.7370  -16.6120 C   0  0  0  0  0  3  0  0  0  0  0  0
  -36.8470   22.8730  -14.6760 C   0  0  0  0  0  1  0  0  0  0  0  0
  -35.0470   18.6970  -17.6100 C   0  0  0  0  0  3  0  0  0  0  0  0
  -37.1610   19.8410  -17.5280 C   0  0  0  0  0  0  0  0  0  0  0  0
  -36.3550   18.7860  -18.0480 C   0  0  0  0  0  0  0  0  0  0  0  0
  -32.6480   25.3980  -10.4490 C   0  0  0  0  0  2  0  0  0  0  0  0
  -30.5320   21.2210  -13.9620 O   0  0  0  0  0  0  0  0  0  0  0  0
  -29.1960   20.9880  -13.5360 C   0  0  0  0  0  1  0  0  0  0  0  0
  -38.4210   19.8660  -18.0290 O   0  0  0  0  0  0  0  0  0  0  0  0
  -39.4810   19.2970  -17.2790 C   0  0  0  0  0  1  0  0  0  0  0  0
  -36.6940   17.8640  -18.9680 O   0  0  0  0  0  0  0  0  0  0  0  0
  -35.8560   16.7430  -19.2060 C   0  0  0  0  0  1  0  0  0  0  0  0
  1 22  1  0  0  0  0
  2 22  1  0  0  0  0
  3  9  1  0  0  0  0
  4  5  1  0  0  0  0
  4  3  1  0  0  0  0
  5  6  2  0  0  0  0
  6 12  1  0  0  0  0
  6  7  1  0  0  0  0
  7 10  1  0  0  0  0
  8  4  2  0  0  0  0
  9  7  2  0  0  0  0
 10 14  2  0  0  0  0
 10  1  1  0  0  0  0
 11 15  2  0  0  0  0
 11  8  1  0  0  0  0
 12 16  2  0  0  0  0
 13  5  1  0  0  0  0
 14  2  1  0  0  0  0
 15 13  1  0  0  0  0
 16 14  1  0  0  0  0
 17  8  1  0  0  0  0
 18  3  1  0  0  0  0
 19 11  1  0  0  0  0
 20 17  2  0  0  0  0
 21 19  2  0  0  0  0
 21 20  1  0  0  0  0
 23 24  1  0  0  0  0
 23 12  1  0  0  0  0
 25 20  1  0  0  0  0
 25 26  1  0  0  0  0
 27 21  1  0  0  0  0
 28 27  1  0  0  0  0
M  END
>  <MODEL>
3

>  <REMARK>
 VINA RESULT:    -9.193      1.468      3.978
 INTER + INTRA:         -11.067
 INTER:                 -10.797
 INTRA:                  -0.270
 UNBOUND:                -0.262
  3 active torsions:
  status: ('A' for Active; 'I' for Inactive)
    1  A    between atoms: O3_3  and  C9_15 
    2  A    between atoms: O4_4  and  C17_23 
    3  A    between atoms: O5_5  and  C18_24 

>  <TORSDO>
F 3

$$$$
./Sanguirubina.pdbqt
 OpenBabel10282519553D

 28 32  0  0  0  0  0  0  0  0999 V2000
  -37.1880   19.1110  -18.0120 O   0  0  0  0  0  0  0  0  0  0  0  0
  -39.3870   19.9110  -17.9870 O   0  0  0  0  0  0  0  0  0  0  0  0
  -34.0140   20.6230  -15.6590 N   0  0  0  0  0  0  0  0  0  0  0  0
  -34.2080   21.6690  -14.7310 C   0  0  0  0  0  0  0  0  0  0  0  0
  -35.5170   22.2310  -14.6540 C   0  0  0  0  0  0  0  0  0  0  0  0
  -36.6200   21.7900  -15.4830 C   0  0  0  0  0  0  0  0  0  0  0  0
  -36.3200   20.7030  -16.3540 C   0  0  0  0  0  0  0  0  0  0  0  0
  -33.1710   22.1840  -13.8500 C   0  0  0  0  0  0  0  0  0  0  0  0
  -35.0140   20.1600  -16.3990 C   0  0  0  0  0  3  0  0  0  0  0  0
  -37.3190   20.1580  -17.1410 C   0  0  0  0  0  0  0  0  0  0  0  0
  -33.4870   23.1890  -12.9030 C   0  0  0  0  0  0  0  0  0  0  0  0
  -37.9600   22.2830  -15.5250 C   0  0  0  0  0  0  0  0  0  0  0  0
  -35.7620   23.2550  -13.7050 C   0  0  0  0  0  3  0  0  0  0  0  0
  -38.6370   20.6530  -17.1290 C   0  0  0  0  0  0  0  0  0  0  0  0
  -34.8110   23.7240  -12.8480 C   0  0  0  0  0  3  0  0  0  0  0  0
  -38.9710   21.7280  -16.3380 C   0  0  0  0  0  3  0  0  0  0  0  0
  -31.8030   21.7770  -13.8220 C   0  0  0  0  0  2  0  0  0  0  0  0
  -32.7310   19.9430  -15.8530 C   0  0  0  0  0  1  0  0  0  0  0  0
  -32.5570   23.7120  -11.9710 C   0  0  0  0  0  3  0  0  0  0  0  0
  -30.8810   22.2720  -12.9240 C   0  0  0  0  0  0  0  0  0  0  0  0
  -31.2500   23.2610  -11.9650 C   0  0  0  0  0  0  0  0  0  0  0  0
  -38.5170   18.9120  -18.5590 C   0  0  0  0  0  2  0  0  0  0  0  0
  -38.2420   23.3300  -14.7280 O   0  0  0  0  0  0  0  0  0  0  0  0
  -39.4010   23.3400  -13.9060 C   0  0  0  0  0  1  0  0  0  0  0  0
  -29.5770   21.9070  -12.8590 O   0  0  0  0  0  0  0  0  0  0  0  0
  -29.1150   20.8270  -13.6530 C   0  0  0  0  0  1  0  0  0  0  0  0
  -30.4630   23.8640  -11.0550 O   0  0  0  0  0  0  0  0  0  0  0  0
  -31.0190   24.3980   -9.8630 C   0  0  0  0  0  1  0  0  0  0  0  0
  1 10  1  0  0  0  0
  2 14  1  0  0  0  0
  3  4  1  0  0  0  0
  4  5  1  0  0  0  0
  4  8  2  0  0  0  0
  5 13  1  0  0  0  0
  6  5  2  0  0  0  0
  7  6  1  0  0  0  0
  8 17  1  0  0  0  0
  8 11  1  0  0  0  0
  9  7  2  0  0  0  0
  9  3  1  0  0  0  0
 10 14  2  0  0  0  0
 10  7  1  0  0  0  0
 11 15  1  0  0  0  0
 11 19  2  0  0  0  0
 12  6  1  0  0  0  0
 12 23  1  0  0  0  0
 13 15  2  0  0  0  0
 14 16  1  0  0  0  0
 16 12  2  0  0  0  0
 17 20  1  0  0  0  0
 18  3  1  0  0  0  0
 19 21  1  0  0  0  0
 20 25  1  0  0  0  0
 20 21  2  0  0  0  0
 21 27  1  0  0  0  0
 22  1  1  0  0  0  0
 22  2  1  0  0  0  0
 23 24  1  0  0  0  0
 26 25  1  0  0  0  0
 27 28  1  0  0  0  0
M  END
>  <MODEL>
4

>  <REMARK>
 VINA RESULT:    -8.836      1.364      7.476
 INTER + INTRA:         -10.648
 INTER:                 -10.389
 INTRA:                  -0.259
 UNBOUND:                -0.262
  3 active torsions:
  status: ('A' for Active; 'I' for Inactive)
    1  A    between atoms: O3_3  and  C9_15 
    2  A    between atoms: O4_4  and  C17_23 
    3  A    between atoms: O5_5  and  C18_24 

>  <TORSDO>
F 3

$$$$
./Sanguirubina.pdbqt
 OpenBabel10282519553D

 28 32  0  0  0  0  0  0  0  0999 V2000
  -29.9530   20.7350  -14.2510 O   0  0  0  0  0  0  0  0  0  0  0  0
  -29.5420   22.3310  -12.5890 O   0  0  0  0  0  0  0  0  0  0  0  0
  -33.7030   20.0180  -16.0730 N   0  0  0  0  0  0  0  0  0  0  0  0
  -34.8480   20.7750  -15.7430 C   0  0  0  0  0  0  0  0  0  0  0  0
  -34.6980   21.7660  -14.7270 C   0  0  0  0  0  0  0  0  0  0  0  0
  -33.4510   22.0060  -14.0300 C   0  0  0  0  0  0  0  0  0  0  0  0
  -32.3520   21.2110  -14.4730 C   0  0  0  0  0  0  0  0  0  0  0  0
  -36.1450   20.6170  -16.3820 C   0  0  0  0  0  0  0  0  0  0  0  0
  -32.5320   20.2450  -15.4900 C   0  0  0  0  0  3  0  0  0  0  0  0
  -31.0980   21.4070  -13.9230 C   0  0  0  0  0  0  0  0  0  0  0  0
  -37.2140   21.4770  -16.0260 C   0  0  0  0  0  0  0  0  0  0  0  0
  -33.1750   22.9380  -12.9840 C   0  0  0  0  0  0  0  0  0  0  0  0
  -35.8140   22.5750  -14.3960 C   0  0  0  0  0  3  0  0  0  0  0  0
  -30.8620   22.3610  -12.9140 C   0  0  0  0  0  0  0  0  0  0  0  0
  -37.0260   22.4650  -15.0100 C   0  0  0  0  0  3  0  0  0  0  0  0
  -31.8950   23.1240  -12.4210 C   0  0  0  0  0  3  0  0  0  0  0  0
  -36.4900   19.6530  -17.3760 C   0  0  0  0  0  2  0  0  0  0  0  0
  -33.6960   18.9680  -17.0950 C   0  0  0  0  0  1  0  0  0  0  0  0
  -38.4930   21.4320  -16.6320 C   0  0  0  0  0  3  0  0  0  0  0  0
  -37.7280   19.5920  -17.9790 C   0  0  0  0  0  0  0  0  0  0  0  0
  -38.7670   20.4980  -17.6130 C   0  0  0  0  0  0  0  0  0  0  0  0
  -28.9220   21.3280  -13.4200 C   0  0  0  0  0  2  0  0  0  0  0  0
  -34.2140   23.6690  -12.5390 O   0  0  0  0  0  0  0  0  0  0  0  0
  -34.3830   23.9450  -11.1560 C   0  0  0  0  0  1  0  0  0  0  0  0
  -38.0910   18.6980  -18.9310 O   0  0  0  0  0  0  0  0  0  0  0  0
  -37.5800   18.8330  -20.2460 C   0  0  0  0  0  1  0  0  0  0  0  0
  -40.0290   20.5400  -18.0800 O   0  0  0  0  0  0  0  0  0  0  0  0
  -41.1280   20.3790  -17.1960 C   0  0  0  0  0  1  0  0  0  0  0  0
  1 10  1  0  0  0  0
  1 22  1  0  0  0  0
  3  4  1  0  0  0  0
  3  9  1  0  0  0  0
  4  5  1  0  0  0  0
  5 13  1  0  0  0  0
  5  6  2  0  0  0  0
  6 12  1  0  0  0  0
  7  6  1  0  0  0  0
  7 10  1  0  0  0  0
  8 11  1  0  0  0  0
  8  4  2  0  0  0  0
  9  7  2  0  0  0  0
 10 14  2  0  0  0  0
 11 15  1  0  0  0  0
 12 23  1  0  0  0  0
 12 16  2  0  0  0  0
 14  2  1  0  0  0  0
 14 16  1  0  0  0  0
 15 13  2  0  0  0  0
 17  8  1  0  0  0  0
 18  3  1  0  0  0  0
 19 11  2  0  0  0  0
 20 21  2  0  0  0  0
 20 17  1  0  0  0  0
 21 19  1  0  0  0  0
 22  2  1  0  0  0  0
 23 24  1  0  0  0  0
 25 20  1  0  0  0  0
 26 25  1  0  0  0  0
 27 21  1  0  0  0  0
 27 28  1  0  0  0  0
M  END
>  <MODEL>
5

>  <REMARK>
 VINA RESULT:    -8.262      1.396      2.012
 INTER + INTRA:          -9.973
 INTER:                  -9.684
 INTRA:                  -0.289
 UNBOUND:                -0.262
  3 active torsions:
  status: ('A' for Active; 'I' for Inactive)
    1  A    between atoms: O3_3  and  C9_15 
    2  A    between atoms: O4_4  and  C17_23 
    3  A    between atoms: O5_5  and  C18_24 

>  <TORSDO>
F 3

$$$$
./Sanguirubina.pdbqt
 OpenBabel10282519553D

 28 32  0  0  0  0  0  0  0  0999 V2000
  -38.8670   19.1060  -19.5060 O   0  0  0  0  0  0  0  0  0  0  0  0
  -37.9720   17.3670  -20.7900 O   0  0  0  0  0  0  0  0  0  0  0  0
  -36.8310   21.1550  -16.4150 N   0  0  0  0  0  0  0  0  0  0  0  0
  -35.4910   20.8600  -16.0830 C   0  0  0  0  0  0  0  0  0  0  0  0
  -34.8640   19.8010  -16.8050 C   0  0  0  0  0  0  0  0  0  0  0  0
  -35.5390   19.0290  -17.8280 C   0  0  0  0  0  0  0  0  0  0  0  0
  -36.8750   19.4410  -18.1080 C   0  0  0  0  0  0  0  0  0  0  0  0
  -34.7220   21.5740  -15.0760 C   0  0  0  0  0  0  0  0  0  0  0  0
  -37.4650   20.5020  -17.3820 C   0  0  0  0  0  3  0  0  0  0  0  0
  -37.5890   18.8160  -19.1150 C   0  0  0  0  0  0  0  0  0  0  0  0
  -33.3590   21.2450  -14.8680 C   0  0  0  0  0  0  0  0  0  0  0  0
  -35.0400   17.9360  -18.5990 C   0  0  0  0  0  0  0  0  0  0  0  0
  -33.5060   19.5020  -16.5300 C   0  0  0  0  0  2  0  0  0  0  0  0
  -37.0470   17.7620  -19.8750 C   0  0  0  0  0  0  0  0  0  0  0  0
  -32.7600   20.1840  -15.6150 C   0  0  0  0  0  3  0  0  0  0  0  0
  -35.7780   17.2970  -19.6180 C   0  0  0  0  0  3  0  0  0  0  0  0
  -35.1960   22.6200  -14.2300 C   0  0  0  0  0  3  0  0  0  0  0  0
  -37.6090   22.2130  -15.7670 C   0  0  0  0  0  1  0  0  0  0  0  0
  -32.5190   21.9200  -13.9490 C   0  0  0  0  0  3  0  0  0  0  0  0
  -34.3960   23.2910  -13.3290 C   0  0  0  0  0  0  0  0  0  0  0  0
  -33.0200   22.9500  -13.1740 C   0  0  0  0  0  0  0  0  0  0  0  0
  -39.1360   18.1990  -20.6060 C   0  0  0  0  0  2  0  0  0  0  0  0
  -33.7910   17.5210  -18.3190 O   0  0  0  0  0  0  0  0  0  0  0  0
  -32.9490   16.9790  -19.3270 C   0  0  0  0  0  1  0  0  0  0  0  0
  -34.8060   24.2950  -12.5150 O   0  0  0  0  0  0  0  0  0  0  0  0
  -35.8270   24.0480  -11.5630 C   0  0  0  0  0  1  0  0  0  0  0  0
  -32.1280   23.4820  -12.3180 O   0  0  0  0  0  0  0  0  0  0  0  0
  -30.8330   22.9160  -12.1850 C   0  0  0  0  0  1  0  0  0  0  0  0
  1 10  1  0  0  0  0
  2 22  1  0  0  0  0
  2 14  1  0  0  0  0
  3  4  1  0  0  0  0
  3 18  1  0  0  0  0
  4  8  2  0  0  0  0
  5 13  1  0  0  0  0
  5  4  1  0  0  0  0
  6  5  2  0  0  0  0
  7  6  1  0  0  0  0
  7  9  2  0  0  0  0
  8 11  1  0  0  0  0
  8 17  1  0  0  0  0
  9  3  1  0  0  0  0
 10  7  1  0  0  0  0
 11 19  1  0  0  0  0
 12 23  1  0  0  0  0
 12  6  1  0  0  0  0
 13 15  1  0  0  0  0
 14 16  1  0  0  0  0
 14 10  2  0  0  0  0
 15 11  2  0  0  0  0
 16 12  2  0  0  0  0
 17 20  2  0  0  0  0
 19 21  2  0  0  0  0
 20 21  1  0  0  0  0
 20 25  1  0  0  0  0
 21 27  1  0  0  0  0
 22  1  1  0  0  0  0
 24 23  1  0  0  0  0
 25 26  1  0  0  0  0
 27 28  1  0  0  0  0
M  END
>  <MODEL>
6

>  <REMARK>
 VINA RESULT:    -7.930      2.174      8.462
 INTER + INTRA:          -9.583
 INTER:                  -9.308
 INTRA:                  -0.275
 UNBOUND:                -0.262
  3 active torsions:
  status: ('A' for Active; 'I' for Inactive)
    1  A    between atoms: O3_3  and  C9_15 
    2  A    between atoms: O4_4  and  C17_23 
    3  A    between atoms: O5_5  and  C18_24 

>  <TORSDO>
F 3

$$$$
./Sanguirubina.pdbqt
 OpenBabel10282519553D

 28 32  0  0  0  0  0  0  0  0999 V2000
  -35.0370   24.5330  -12.1300 O   0  0  0  0  0  0  0  0  0  0  0  0
  -32.7660   24.0790  -12.4630 O   0  0  0  0  0  0  0  0  0  0  0  0
  -38.2270   22.6670  -14.1880 N   0  0  0  0  0  0  0  0  0  0  0  0
  -38.0040   21.6530  -15.1450 C   0  0  0  0  0  0  0  0  0  0  0  0
  -36.6460   21.3160  -15.4260 C   0  0  0  0  0  0  0  0  0  0  0  0
  -35.5190   21.9700  -14.7930 C   0  0  0  0  0  0  0  0  0  0  0  0
  -35.8630   22.9490  -13.8160 C   0  0  0  0  0  0  0  0  0  0  0  0
  -39.0620   20.9320  -15.8350 C   0  0  0  0  0  0  0  0  0  0  0  0
  -37.2190   23.2530  -13.5530 C   0  0  0  0  0  3  0  0  0  0  0  0
  -34.8640   23.5860  -13.1020 C   0  0  0  0  0  0  0  0  0  0  0  0
  -38.7330   19.8810  -16.7260 C   0  0  0  0  0  0  0  0  0  0  0  0
  -34.1240   21.7490  -15.0030 C   0  0  0  0  0  0  0  0  0  0  0  0
  -36.3820   20.2740  -16.3500 C   0  0  0  0  0  2  0  0  0  0  0  0
  -33.4990   23.3160  -13.3170 C   0  0  0  0  0  0  0  0  0  0  0  0
  -37.3620   19.5640  -16.9780 C   0  0  0  0  0  3  0  0  0  0  0  0
  -33.1100   22.4110  -14.2780 C   0  0  0  0  0  3  0  0  0  0  0  0
  -40.4650   21.1660  -15.7150 C   0  0  0  0  0  3  0  0  0  0  0  0
  -39.5610   23.1220  -13.7900 C   0  0  0  0  0  1  0  0  0  0  0  0
  -39.6960   19.0910  -17.4000 C   0  0  0  0  0  3  0  0  0  0  0  0
  -41.4190   20.4080  -16.3610 C   0  0  0  0  0  0  0  0  0  0  0  0
  -41.0440   19.3380  -17.2260 C   0  0  0  0  0  0  0  0  0  0  0  0
  -33.6950   24.8560  -11.6800 C   0  0  0  0  0  2  0  0  0  0  0  0
  -33.7910   20.8490  -15.9470 O   0  0  0  0  0  0  0  0  0  0  0  0
  -32.7520   19.9040  -15.7320 C   0  0  0  0  0  1  0  0  0  0  0  0
  -42.7600   20.5930  -16.2680 O   0  0  0  0  0  0  0  0  0  0  0  0
  -43.3490   21.7390  -16.8580 C   0  0  0  0  0  1  0  0  0  0  0  0
  -41.8500   18.5400  -17.9500 O   0  0  0  0  0  0  0  0  0  0  0  0
  -41.5470   18.2490  -19.3060 C   0  0  0  0  0  1  0  0  0  0  0  0
  1 22  1  0  0  0  0
  2 22  1  0  0  0  0
  3 18  1  0  0  0  0
  3  9  1  0  0  0  0
  4  3  1  0  0  0  0
  5  4  1  0  0  0  0
  5  6  2  0  0  0  0
  6  7  1  0  0  0  0
  7  9  2  0  0  0  0
  7 10  1  0  0  0  0
  8 17  1  0  0  0  0
  8  4  2  0  0  0  0
 10  1  1  0  0  0  0
 11  8  1  0  0  0  0
 12  6  1  0  0  0  0
 12 16  2  0  0  0  0
 13  5  1  0  0  0  0
 14 10  2  0  0  0  0
 14  2  1  0  0  0  0
 15 11  2  0  0  0  0
 15 13  1  0  0  0  0
 16 14  1  0  0  0  0
 19 21  2  0  0  0  0
 19 11  1  0  0  0  0
 20 25  1  0  0  0  0
 20 17  2  0  0  0  0
 21 20  1  0  0  0  0
 23 24  1  0  0  0  0
 23 12  1  0  0  0  0
 26 25  1  0  0  0  0
 27 21  1  0  0  0  0
 28 27  1  0  0  0  0
M  END
>  <MODEL>
7

>  <REMARK>
 VINA RESULT:    -7.557      2.714      5.341
 INTER + INTRA:          -9.144
 INTER:                  -8.865
 INTRA:                  -0.279
 UNBOUND:                -0.262
  3 active torsions:
  status: ('A' for Active; 'I' for Inactive)
    1  A    between atoms: O3_3  and  C9_15 
    2  A    between atoms: O4_4  and  C17_23 
    3  A    between atoms: O5_5  and  C18_24 

>  <TORSDO>
F 3

$$$$
./Sanguirubina.pdbqt
 OpenBabel10282519553D

 28 32  0  0  0  0  0  0  0  0999 V2000
  -40.8210   23.5010  -13.5670 O   0  0  0  0  0  0  0  0  0  0  0  0
  -42.2560   22.3380  -15.0040 O   0  0  0  0  0  0  0  0  0  0  0  0
  -36.6220   23.0170  -13.3940 N   0  0  0  0  0  0  0  0  0  0  0  0
  -35.9380   22.1330  -14.2570 C   0  0  0  0  0  0  0  0  0  0  0  0
  -36.7340   21.3680  -15.1610 C   0  0  0  0  0  0  0  0  0  0  0  0
  -38.1780   21.4520  -15.2150 C   0  0  0  0  0  0  0  0  0  0  0  0
  -38.7580   22.4060  -14.3280 C   0  0  0  0  0  0  0  0  0  0  0  0
  -34.4930   21.9730  -14.2870 C   0  0  0  0  0  0  0  0  0  0  0  0
  -37.9410   23.1570  -13.4500 C   0  0  0  0  0  3  0  0  0  0  0  0
  -40.1250   22.6170  -14.3450 C   0  0  0  0  0  0  0  0  0  0  0  0
  -33.9000   21.1100  -15.2410 C   0  0  0  0  0  0  0  0  0  0  0  0
  -39.0870   20.7280  -16.0460 C   0  0  0  0  0  0  0  0  0  0  0  0
  -36.0810   20.4990  -16.0720 C   0  0  0  0  0  2  0  0  0  0  0  0
  -40.9830   21.9050  -15.2040 C   0  0  0  0  0  0  0  0  0  0  0  0
  -34.7260   20.3650  -16.1380 C   0  0  0  0  0  3  0  0  0  0  0  0
  -40.4820   20.9420  -16.0500 C   0  0  0  0  0  3  0  0  0  0  0  0
  -33.5510   22.6160  -13.4290 C   0  0  0  0  0  3  0  0  0  0  0  0
  -35.9480   23.8710  -12.4130 C   0  0  0  0  0  1  0  0  0  0  0  0
  -32.5010   20.9330  -15.3780 C   0  0  0  0  0  3  0  0  0  0  0  0
  -32.1860   22.4590  -13.5460 C   0  0  0  0  0  0  0  0  0  0  0  0
  -31.6290   21.6040  -14.5420 C   0  0  0  0  0  0  0  0  0  0  0  0
  -42.2030   23.3610  -13.9870 C   0  0  0  0  0  2  0  0  0  0  0  0
  -38.5500   19.8040  -16.8630 O   0  0  0  0  0  0  0  0  0  0  0  0
  -38.8900   19.7510  -18.2420 C   0  0  0  0  0  1  0  0  0  0  0  0
  -31.2590   23.0580  -12.7580 O   0  0  0  0  0  0  0  0  0  0  0  0
  -31.5010   23.1820  -11.3670 C   0  0  0  0  0  1  0  0  0  0  0  0
  -30.3310   21.3200  -14.7560 O   0  0  0  0  0  0  0  0  0  0  0  0
  -29.5720   20.6340  -13.7710 C   0  0  0  0  0  1  0  0  0  0  0  0
  2 22  1  0  0  0  0
  3 18  1  0  0  0  0
  4  3  1  0  0  0  0
  5  4  1  0  0  0  0
  6  5  2  0  0  0  0
  6  7  1  0  0  0  0
  7  9  2  0  0  0  0
  8  4  2  0  0  0  0
  8 17  1  0  0  0  0
  9  3  1  0  0  0  0
 10  7  1  0  0  0  0
 10  1  1  0  0  0  0
 11  8  1  0  0  0  0
 12  6  1  0  0  0  0
 13  5  1  0  0  0  0
 14  2  1  0  0  0  0
 14 10  2  0  0  0  0
 15 13  1  0  0  0  0
 15 11  2  0  0  0  0
 16 12  2  0  0  0  0
 16 14  1  0  0  0  0
 19 11  1  0  0  0  0
 19 21  2  0  0  0  0
 20 17  2  0  0  0  0
 20 25  1  0  0  0  0
 21 20  1  0  0  0  0
 22  1  1  0  0  0  0
 23 12  1  0  0  0  0
 24 23  1  0  0  0  0
 25 26  1  0  0  0  0
 27 21  1  0  0  0  0
 27 28  1  0  0  0  0
M  END
>  <MODEL>
8

>  <REMARK>
 VINA RESULT:    -7.456      2.048      8.397
 INTER + INTRA:          -9.026
 INTER:                  -8.951
 INTRA:                  -0.074
 UNBOUND:                -0.262
  3 active torsions:
  status: ('A' for Active; 'I' for Inactive)
    1  A    between atoms: O3_3  and  C9_15 
    2  A    between atoms: O4_4  and  C17_23 
    3  A    between atoms: O5_5  and  C18_24 

>  <TORSDO>
F 3

$$$$
./Sanguirubina.pdbqt
 OpenBabel10282519553D

 28 32  0  0  0  0  0  0  0  0999 V2000
   -9.8590   38.7890   11.7850 O   0  0  0  0  0  0  0  0  0  0  0  0
   -9.4780   36.8040   12.9640 O   0  0  0  0  0  0  0  0  0  0  0  0
   -7.4950   40.2170    8.5800 N   0  0  0  0  0  0  0  0  0  0  0  0
   -6.3880   39.4900    8.0900 C   0  0  0  0  0  0  0  0  0  0  0  0
   -6.0690   38.2690    8.7570 C   0  0  0  0  0  0  0  0  0  0  0  0
   -6.8100   37.7710    9.8970 C   0  0  0  0  0  0  0  0  0  0  0  0
   -7.9310   38.5650   10.2800 C   0  0  0  0  0  0  0  0  0  0  0  0
   -5.5810   39.8990    6.9520 C   0  0  0  0  0  0  0  0  0  0  0  0
   -8.2270   39.7640    9.5920 C   0  0  0  0  0  3  0  0  0  0  0  0
   -8.7480   38.1450   11.3140 C   0  0  0  0  0  0  0  0  0  0  0  0
   -4.5340   39.0610    6.4940 C   0  0  0  0  0  0  0  0  0  0  0  0
   -6.5800   36.5890   10.6660 C   0  0  0  0  0  0  0  0  0  0  0  0
   -4.9910   37.4900    8.2680 C   0  0  0  0  0  3  0  0  0  0  0  0
   -8.5050   36.9550   12.0270 C   0  0  0  0  0  0  0  0  0  0  0  0
   -4.2470   37.8400    7.1810 C   0  0  0  0  0  3  0  0  0  0  0  0
   -7.4130   36.1730   11.7270 C   0  0  0  0  0  3  0  0  0  0  0  0
   -5.7230   41.1030    6.1990 C   0  0  0  0  0  2  0  0  0  0  0  0
   -7.9490   41.4840    8.0020 C   0  0  0  0  0  1  0  0  0  0  0  0
   -3.7310   39.3510    5.3640 C   0  0  0  0  0  3  0  0  0  0  0  0
   -4.9540   41.4050    5.0960 C   0  0  0  0  0  0  0  0  0  0  0  0
   -3.9300   40.5180    4.6500 C   0  0  0  0  0  0  0  0  0  0  0  0
  -10.3680   37.9320   12.8400 C   0  0  0  0  0  2  0  0  0  0  0  0
   -5.5060   35.8510   10.3310 O   0  0  0  0  0  0  0  0  0  0  0  0
   -4.6490   35.3030   11.3230 C   0  0  0  0  0  1  0  0  0  0  0  0
   -5.0630   42.5330    4.3500 O   0  0  0  0  0  0  0  0  0  0  0  0
   -6.1020   42.6380    3.3920 C   0  0  0  0  0  1  0  0  0  0  0  0
   -3.0780   40.6880    3.6220 O   0  0  0  0  0  0  0  0  0  0  0  0
   -3.4150   40.2230    2.3240 C   0  0  0  0  0  1  0  0  0  0  0  0
  1 22  1  0  0  0  0
  3  9  1  0  0  0  0
  4  3  1  0  0  0  0
  4  5  1  0  0  0  0
  5  6  2  0  0  0  0
  6  7  1  0  0  0  0
  6 12  1  0  0  0  0
  7 10  1  0  0  0  0
  8  4  2  0  0  0  0
  9  7  2  0  0  0  0
 10  1  1  0  0  0  0
 10 14  2  0  0  0  0
 11  8  1  0  0  0  0
 11 15  1  0  0  0  0
 12 16  2  0  0  0  0
 13  5  1  0  0  0  0
 14  2  1  0  0  0  0
 15 13  2  0  0  0  0
 16 14  1  0  0  0  0
 17  8  1  0  0  0  0
 18  3  1  0  0  0  0
 19 11  2  0  0  0  0
 20 17  1  0  0  0  0
 21 20  2  0  0  0  0
 21 19  1  0  0  0  0
 22  2  1  0  0  0  0
 23 12  1  0  0  0  0
 23 24  1  0  0  0  0
 25 20  1  0  0  0  0
 26 25  1  0  0  0  0
 27 21  1  0  0  0  0
 28 27  1  0  0  0  0
M  END
>  <MODEL>
9

>  <REMARK>
 VINA RESULT:    -7.337     38.819     39.628
 INTER + INTRA:          -8.886
 INTER:                  -8.574
 INTRA:                  -0.312
 UNBOUND:                -0.262
  3 active torsions:
  status: ('A' for Active; 'I' for Inactive)
    1  A    between atoms: O3_3  and  C9_15 
    2  A    between atoms: O4_4  and  C17_23 
    3  A    between atoms: O5_5  and  C18_24 

>  <TORSDO>
F 3

$$$$
./Sanguirubina.pdbqt
 OpenBabel10282519553D

 28 32  0  0  0  0  0  0  0  0999 V2000
  -40.3960   31.0260    4.4390 O   0  0  0  0  0  0  0  0  0  0  0  0
  -40.8500   32.9290    3.1560 O   0  0  0  0  0  0  0  0  0  0  0  0
  -41.7720   27.1180    3.5790 N   0  0  0  0  0  0  0  0  0  0  0  0
  -42.5420   26.8360    2.4300 C   0  0  0  0  0  0  0  0  0  0  0  0
  -42.8810   27.9400    1.5920 C   0  0  0  0  0  0  0  0  0  0  0  0
  -42.4870   29.3040    1.8770 C   0  0  0  0  0  0  0  0  0  0  0  0
  -41.6790   29.4650    3.0400 C   0  0  0  0  0  0  0  0  0  0  0  0
  -42.9870   25.5050    2.0500 C   0  0  0  0  0  0  0  0  0  0  0  0
  -41.3510   28.3490    3.8450 C   0  0  0  0  0  3  0  0  0  0  0  0
  -41.1900   30.7170    3.3680 C   0  0  0  0  0  0  0  0  0  0  0  0
  -43.6960   25.3190    0.8380 C   0  0  0  0  0  0  0  0  0  0  0  0
  -42.7820   30.4930    1.1420 C   0  0  0  0  0  0  0  0  0  0  0  0
  -43.6190   27.6920    0.4060 C   0  0  0  0  0  2  0  0  0  0  0  0
  -41.4770   31.8600    2.5970 C   0  0  0  0  0  0  0  0  0  0  0  0
  -44.0120   26.4460    0.0170 C   0  0  0  0  0  3  0  0  0  0  0  0
  -42.2870   31.7680    1.4890 C   0  0  0  0  0  3  0  0  0  0  0  0
  -42.7830   24.2990    2.7870 C   0  0  0  0  0  3  0  0  0  0  0  0
  -41.3420   26.0940    4.5340 C   0  0  0  0  0  1  0  0  0  0  0  0
  -44.1220   24.0550    0.3610 C   0  0  0  0  0  3  0  0  0  0  0  0
  -43.1870   23.0590    2.3420 C   0  0  0  0  0  0  0  0  0  0  0  0
  -43.8720   22.9130    1.0990 C   0  0  0  0  0  0  0  0  0  0  0  0
  -40.1400   32.4480    4.3160 C   0  0  0  0  0  2  0  0  0  0  0  0
  -43.5710   30.3530    0.0610 O   0  0  0  0  0  0  0  0  0  0  0  0
  -44.0180   31.4820   -0.6770 C   0  0  0  0  0  1  0  0  0  0  0  0
  -43.0060   21.8910    3.0070 O   0  0  0  0  0  0  0  0  0  0  0  0
  -43.8270   21.5880    4.1220 C   0  0  0  0  0  1  0  0  0  0  0  0
  -44.3590   21.7840    0.5520 O   0  0  0  0  0  0  0  0  0  0  0  0
  -44.8820   21.7910   -0.7680 C   0  0  0  0  0  1  0  0  0  0  0  0
  2 22  1  0  0  0  0
  3  9  1  0  0  0  0
  3 18  1  0  0  0  0
  4  3  1  0  0  0  0
  5  6  2  0  0  0  0
  5  4  1  0  0  0  0
  6  7  1  0  0  0  0
  7 10  1  0  0  0  0
  7  9  2  0  0  0  0
  8  4  2  0  0  0  0
  8 17  1  0  0  0  0
 10  1  1  0  0  0  0
 11  8  1  0  0  0  0
 12 16  2  0  0  0  0
 12  6  1  0  0  0  0
 13  5  1  0  0  0  0
 14  2  1  0  0  0  0
 14 10  2  0  0  0  0
 15 13  1  0  0  0  0
 15 11  2  0  0  0  0
 16 14  1  0  0  0  0
 19 11  1  0  0  0  0
 19 21  2  0  0  0  0
 20 17  2  0  0  0  0
 20 25  1  0  0  0  0
 21 20  1  0  0  0  0
 22  1  1  0  0  0  0
 23 12  1  0  0  0  0
 24 23  1  0  0  0  0
 25 26  1  0  0  0  0
 27 21  1  0  0  0  0
 28 27  1  0  0  0  0
M  END
>  <MODEL>
10

>  <REMARK>
 VINA RESULT:    -7.299     18.111     19.708
 INTER + INTRA:          -8.842
 INTER:                  -8.571
 INTRA:                  -0.271
 UNBOUND:                -0.262
  3 active torsions:
  status: ('A' for Active; 'I' for Inactive)
    1  A    between atoms: O3_3  and  C9_15 
    2  A    between atoms: O4_4  and  C17_23 
    3  A    between atoms: O5_5  and  C18_24 

>  <TORSDO>
F 3

$$$$
./Sanguirubina.pdbqt
 OpenBabel10282519553D

 28 32  0  0  0  0  0  0  0  0999 V2000
  -31.8290   45.4290   -0.0610 O   0  0  0  0  0  0  0  0  0  0  0  0
  -33.6150   45.6530    1.4340 O   0  0  0  0  0  0  0  0  0  0  0  0
  -32.0890   45.8730   -4.2600 N   0  0  0  0  0  0  0  0  0  0  0  0
  -33.3010   46.2180   -4.8990 C   0  0  0  0  0  0  0  0  0  0  0  0
  -34.4520   46.3620   -4.0680 C   0  0  0  0  0  0  0  0  0  0  0  0
  -34.4260   46.1590   -2.6340 C   0  0  0  0  0  0  0  0  0  0  0  0
  -33.1430   45.8540   -2.0930 C   0  0  0  0  0  0  0  0  0  0  0  0
  -33.4360   46.4470   -6.3290 C   0  0  0  0  0  0  0  0  0  0  0  0
  -32.0190   45.7290   -2.9420 C   0  0  0  0  0  3  0  0  0  0  0  0
  -32.9920   45.7080   -0.7250 C   0  0  0  0  0  0  0  0  0  0  0  0
  -34.6820   46.8580   -6.8610 C   0  0  0  0  0  0  0  0  0  0  0  0
  -35.5020   46.2450   -1.6990 C   0  0  0  0  0  0  0  0  0  0  0  0
  -35.6780   46.7480   -4.6660 C   0  0  0  0  0  3  0  0  0  0  0  0
  -34.0740   45.8330    0.1660 C   0  0  0  0  0  0  0  0  0  0  0  0
  -35.8130   47.0020   -5.9980 C   0  0  0  0  0  3  0  0  0  0  0  0
  -35.3420   46.0840   -0.3060 C   0  0  0  0  0  3  0  0  0  0  0  0
  -32.4110   46.3020   -7.3120 C   0  0  0  0  0  2  0  0  0  0  0  0
  -30.8240   45.6920   -4.9750 C   0  0  0  0  0  1  0  0  0  0  0  0
  -34.8930   47.1550   -8.2300 C   0  0  0  0  0  3  0  0  0  0  0  0
  -32.5940   46.5870   -8.6480 C   0  0  0  0  0  0  0  0  0  0  0  0
  -33.8580   47.0290   -9.1370 C   0  0  0  0  0  0  0  0  0  0  0  0
  -32.1960   45.4100    1.3420 C   0  0  0  0  0  2  0  0  0  0  0  0
  -36.7220   46.5000   -2.2060 O   0  0  0  0  0  0  0  0  0  0  0  0
  -37.5000   47.5950   -1.7400 C   0  0  0  0  0  1  0  0  0  0  0  0
  -31.6450   46.4700   -9.6100 O   0  0  0  0  0  0  0  0  0  0  0  0
  -30.4300   47.1890   -9.4830 C   0  0  0  0  0  1  0  0  0  0  0  0
  -34.2010   47.3080  -10.4090 O   0  0  0  0  0  0  0  0  0  0  0  0
  -35.5380   47.1280  -10.8490 C   0  0  0  0  0  1  0  0  0  0  0  0
  1 22  1  0  0  0  0
  3  9  1  0  0  0  0
  4  3  1  0  0  0  0
  4  5  1  0  0  0  0
  5  6  2  0  0  0  0
  6  7  1  0  0  0  0
  6 12  1  0  0  0  0
  7 10  1  0  0  0  0
  8  4  2  0  0  0  0
  9  7  2  0  0  0  0
 10  1  1  0  0  0  0
 10 14  2  0  0  0  0
 11  8  1  0  0  0  0
 11 15  1  0  0  0  0
 12 16  2  0  0  0  0
 13  5  1  0  0  0  0
 14  2  1  0  0  0  0
 15 13  2  0  0  0  0
 16 14  1  0  0  0  0
 17  8  1  0  0  0  0
 18  3  1  0  0  0  0
 19 11  2  0  0  0  0
 20 17  1  0  0  0  0
 21 20  2  0  0  0  0
 21 19  1  0  0  0  0
 22  2  1  0  0  0  0
 23 24  1  0  0  0  0
 23 12  1  0  0  0  0
 25 26  1  0  0  0  0
 25 20  1  0  0  0  0
 27 21  1  0  0  0  0
 28 27  1  0  0  0  0
M  END
>  <MODEL>
11

>  <REMARK>
 VINA RESULT:    -7.277     25.214     26.384
 INTER + INTRA:          -8.816
 INTER:                  -8.586
 INTRA:                  -0.230
 UNBOUND:                -0.262
  3 active torsions:
  status: ('A' for Active; 'I' for Inactive)
    1  A    between atoms: O3_3  and  C9_15 
    2  A    between atoms: O4_4  and  C17_23 
    3  A    between atoms: O5_5  and  C18_24 

>  <TORSDO>
F 3

$$$$
./Sanguirubina.pdbqt
 OpenBabel10282519553D

 28 32  0  0  0  0  0  0  0  0999 V2000
   -0.7480   35.7190    5.5340 O   0  0  0  0  0  0  0  0  0  0  0  0
   -0.1230   33.4660    5.6110 O   0  0  0  0  0  0  0  0  0  0  0  0
   -4.1370   37.3790    7.4460 N   0  0  0  0  0  0  0  0  0  0  0  0
   -4.9990   36.5960    8.2450 C   0  0  0  0  0  0  0  0  0  0  0  0
   -4.7050   35.2030    8.3410 C   0  0  0  0  0  0  0  0  0  0  0  0
   -3.5930   34.5780    7.6550 C   0  0  0  0  0  0  0  0  0  0  0  0
   -2.7670   35.4700    6.9100 C   0  0  0  0  0  0  0  0  0  0  0  0
   -6.1390   37.1240    8.9770 C   0  0  0  0  0  0  0  0  0  0  0  0
   -3.0800   36.8480    6.8430 C   0  0  0  0  0  3  0  0  0  0  0  0
   -1.6390   34.9890    6.2710 C   0  0  0  0  0  0  0  0  0  0  0  0
   -6.9000   36.2650    9.8090 C   0  0  0  0  0  0  0  0  0  0  0  0
   -3.2080   33.2020    7.6440 C   0  0  0  0  0  0  0  0  0  0  0  0
   -5.5220   34.3910    9.1670 C   0  0  0  0  0  3  0  0  0  0  0  0
   -1.2760   33.6290    6.3130 C   0  0  0  0  0  0  0  0  0  0  0  0
   -6.5720   34.8760    9.8880 C   0  0  0  0  0  3  0  0  0  0  0  0
   -2.0600   32.7170    6.9810 C   0  0  0  0  0  3  0  0  0  0  0  0
   -6.6080   38.4720    8.9610 C   0  0  0  0  0  2  0  0  0  0  0  0
   -4.3050   38.8210    7.2510 C   0  0  0  0  0  1  0  0  0  0  0  0
   -7.9920   36.7010   10.5980 C   0  0  0  0  0  3  0  0  0  0  0  0
   -7.6680   38.9170    9.7220 C   0  0  0  0  0  0  0  0  0  0  0  0
   -8.3870   38.0250   10.5700 C   0  0  0  0  0  0  0  0  0  0  0  0
    0.2590   34.7640    5.1110 C   0  0  0  0  0  2  0  0  0  0  0  0
   -4.0010   32.3490    8.3180 O   0  0  0  0  0  0  0  0  0  0  0  0
   -4.1870   31.0110    7.8790 C   0  0  0  0  0  1  0  0  0  0  0  0
   -8.1380   40.1890    9.7410 O   0  0  0  0  0  0  0  0  0  0  0  0
   -8.8720   40.6780    8.6320 C   0  0  0  0  0  1  0  0  0  0  0  0
   -9.4580   38.2980   11.3390 O   0  0  0  0  0  0  0  0  0  0  0  0
   -9.5140   37.8470   12.6830 C   0  0  0  0  0  1  0  0  0  0  0  0
  1 10  1  0  0  0  0
  2 14  1  0  0  0  0
  3  4  1  0  0  0  0
  4  5  1  0  0  0  0
  4  8  2  0  0  0  0
  5 13  1  0  0  0  0
  6  5  2  0  0  0  0
  7  6  1  0  0  0  0
  8 11  1  0  0  0  0
  9  7  2  0  0  0  0
  9  3  1  0  0  0  0
 10 14  2  0  0  0  0
 10  7  1  0  0  0  0
 11 15  1  0  0  0  0
 11 19  2  0  0  0  0
 12  6  1  0  0  0  0
 12 23  1  0  0  0  0
 13 15  2  0  0  0  0
 14 16  1  0  0  0  0
 16 12  2  0  0  0  0
 17  8  1  0  0  0  0
 17 20  1  0  0  0  0
 18  3  1  0  0  0  0
 20 25  1  0  0  0  0
 20 21  2  0  0  0  0
 21 19  1  0  0  0  0
 21 27  1  0  0  0  0
 22  1  1  0  0  0  0
 22  2  1  0  0  0  0
 24 23  1  0  0  0  0
 26 25  1  0  0  0  0
 27 28  1  0  0  0  0
M  END
>  <MODEL>
12

>  <REMARK>
 VINA RESULT:    -7.258     38.184     39.357
 INTER + INTRA:          -8.793
 INTER:                  -8.510
 INTRA:                  -0.282
 UNBOUND:                -0.262
  3 active torsions:
  status: ('A' for Active; 'I' for Inactive)
    1  A    between atoms: O3_3  and  C9_15 
    2  A    between atoms: O4_4  and  C17_23 
    3  A    between atoms: O5_5  and  C18_24 

>  <TORSDO>
F 3

$$$$
./Sanguirubina.pdbqt
 OpenBabel10282519553D

 28 32  0  0  0  0  0  0  0  0999 V2000
  -43.1090   32.1680    0.4180 O   0  0  0  0  0  0  0  0  0  0  0  0
  -42.0820   33.6260    1.9340 O   0  0  0  0  0  0  0  0  0  0  0  0
  -43.3040   27.9620    0.8270 N   0  0  0  0  0  0  0  0  0  0  0  0
  -42.7660   27.2980    1.9510 C   0  0  0  0  0  0  0  0  0  0  0  0
  -42.1060   28.1050    2.9240 C   0  0  0  0  0  0  0  0  0  0  0  0
  -41.9580   29.5400    2.7980 C   0  0  0  0  0  0  0  0  0  0  0  0
  -42.5750   30.1090    1.6450 C   0  0  0  0  0  0  0  0  0  0  0  0
  -42.8610   25.8640    2.1760 C   0  0  0  0  0  0  0  0  0  0  0  0
  -43.2320   29.2820    0.7030 C   0  0  0  0  0  3  0  0  0  0  0  0
  -42.5540   31.4790    1.4620 C   0  0  0  0  0  0  0  0  0  0  0  0
  -42.3480   25.3040    3.3720 C   0  0  0  0  0  0  0  0  0  0  0  0
  -41.3020   30.4530    3.6790 C   0  0  0  0  0  0  0  0  0  0  0  0
  -41.5880   27.4800    4.0870 C   0  0  0  0  0  3  0  0  0  0  0  0
  -41.9230   32.3490    2.3720 C   0  0  0  0  0  0  0  0  0  0  0  0
  -41.7000   26.1430    4.3310 C   0  0  0  0  0  3  0  0  0  0  0  0
  -41.2760   31.8500    3.4790 C   0  0  0  0  0  3  0  0  0  0  0  0
  -43.4390   24.9030    1.2930 C   0  0  0  0  0  2  0  0  0  0  0  0
  -44.0120   27.2740   -0.2550 C   0  0  0  0  0  1  0  0  0  0  0  0
  -42.4430   23.9290    3.7010 C   0  0  0  0  0  3  0  0  0  0  0  0
  -43.5420   23.5610    1.5930 C   0  0  0  0  0  0  0  0  0  0  0  0
  -43.0410   23.0440    2.8240 C   0  0  0  0  0  0  0  0  0  0  0  0
  -42.8400   33.5640    0.7080 C   0  0  0  0  0  2  0  0  0  0  0  0
  -40.6910   29.9200    4.7530 O   0  0  0  0  0  0  0  0  0  0  0  0
  -39.8040   30.6890    5.5540 C   0  0  0  0  0  1  0  0  0  0  0  0
  -44.0910   22.6190    0.7860 O   0  0  0  0  0  0  0  0  0  0  0  0
  -43.7320   22.5790   -0.5840 C   0  0  0  0  0  1  0  0  0  0  0  0
  -43.0330   21.7640    3.2410 O   0  0  0  0  0  0  0  0  0  0  0  0
  -43.9950   21.3080    4.1790 C   0  0  0  0  0  1  0  0  0  0  0  0
  1 22  1  0  0  0  0
  1 10  1  0  0  0  0
  2 14  1  0  0  0  0
  3  4  1  0  0  0  0
  4  8  2  0  0  0  0
  4  5  1  0  0  0  0
  5 13  1  0  0  0  0
  6  5  2  0  0  0  0
  6 12  1  0  0  0  0
  7  6  1  0  0  0  0
  8 11  1  0  0  0  0
  9  3  1  0  0  0  0
  9  7  2  0  0  0  0
 10  7  1  0  0  0  0
 10 14  2  0  0  0  0
 11 19  2  0  0  0  0
 11 15  1  0  0  0  0
 12 23  1  0  0  0  0
 13 15  2  0  0  0  0
 14 16  1  0  0  0  0
 16 12  2  0  0  0  0
 17 20  1  0  0  0  0
 17  8  1  0  0  0  0
 18  3  1  0  0  0  0
 20 21  2  0  0  0  0
 21 27  1  0  0  0  0
 21 19  1  0  0  0  0
 22  2  1  0  0  0  0
 23 24  1  0  0  0  0
 25 20  1  0  0  0  0
 26 25  1  0  0  0  0
 27 28  1  0  0  0  0
M  END
>  <MODEL>
13

>  <REMARK>
 VINA RESULT:    -7.161     17.680     20.047
 INTER + INTRA:          -8.679
 INTER:                  -8.403
 INTRA:                  -0.276
 UNBOUND:                -0.262
  3 active torsions:
  status: ('A' for Active; 'I' for Inactive)
    1  A    between atoms: O3_3  and  C9_15 
    2  A    between atoms: O4_4  and  C17_23 
    3  A    between atoms: O5_5  and  C18_24 

>  <TORSDO>
F 3

$$$$
./Sanguirubina.pdbqt
 OpenBabel10282519553D

 28 32  0  0  0  0  0  0  0  0999 V2000
  -42.9810   22.7570    4.5770 O   0  0  0  0  0  0  0  0  0  0  0  0
  -44.1450   21.7740    2.8010 O   0  0  0  0  0  0  0  0  0  0  0  0
  -41.6910   26.7830    4.7200 N   0  0  0  0  0  0  0  0  0  0  0  0
  -41.9680   27.6920    3.6750 C   0  0  0  0  0  0  0  0  0  0  0  0
  -42.6640   27.1790    2.5400 C   0  0  0  0  0  0  0  0  0  0  0  0
  -43.0710   25.7940    2.4170 C   0  0  0  0  0  0  0  0  0  0  0  0
  -42.7740   24.9780    3.5480 C   0  0  0  0  0  0  0  0  0  0  0  0
  -41.6070   29.1000    3.6980 C   0  0  0  0  0  0  0  0  0  0  0  0
  -42.0930   25.5190    4.6630 C   0  0  0  0  0  3  0  0  0  0  0  0
  -43.1800   23.6560    3.5660 C   0  0  0  0  0  0  0  0  0  0  0  0
  -41.9950   29.9440    2.6280 C   0  0  0  0  0  0  0  0  0  0  0  0
  -43.7420   25.1520    1.3330 C   0  0  0  0  0  0  0  0  0  0  0  0
  -42.9980   28.0690    1.4880 C   0  0  0  0  0  2  0  0  0  0  0  0
  -43.8700   23.0690    2.4870 C   0  0  0  0  0  0  0  0  0  0  0  0
  -42.6990   29.3980    1.5100 C   0  0  0  0  0  3  0  0  0  0  0  0
  -44.1440   23.7990    1.3540 C   0  0  0  0  0  3  0  0  0  0  0  0
  -40.8730   29.7710    4.7220 C   0  0  0  0  0  3  0  0  0  0  0  0
  -40.9880   27.1580    5.9490 C   0  0  0  0  0  1  0  0  0  0  0  0
  -41.7340   31.3360    2.5900 C   0  0  0  0  0  3  0  0  0  0  0  0
  -40.6090   31.1250    4.7050 C   0  0  0  0  0  0  0  0  0  0  0  0
  -41.0460   31.9440    3.6230 C   0  0  0  0  0  0  0  0  0  0  0  0
  -43.6150   21.5340    4.1220 C   0  0  0  0  0  2  0  0  0  0  0  0
  -43.9970   25.9070    0.2490 O   0  0  0  0  0  0  0  0  0  0  0  0
  -43.6100   25.4870   -1.0520 C   0  0  0  0  0  1  0  0  0  0  0  0
  -39.9230   31.8000    5.6610 O   0  0  0  0  0  0  0  0  0  0  0  0
  -38.5130   31.9070    5.5640 C   0  0  0  0  0  1  0  0  0  0  0  0
  -40.8350   33.2610    3.4460 O   0  0  0  0  0  0  0  0  0  0  0  0
  -39.9530   33.7190    2.4320 C   0  0  0  0  0  1  0  0  0  0  0  0
  2 22  1  0  0  0  0
  3 18  1  0  0  0  0
  4  8  2  0  0  0  0
  4  3  1  0  0  0  0
  5  4  1  0  0  0  0
  6  5  2  0  0  0  0
  6  7  1  0  0  0  0
  7 10  1  0  0  0  0
  7  9  2  0  0  0  0
  8 17  1  0  0  0  0
  9  3  1  0  0  0  0
 10  1  1  0  0  0  0
 11  8  1  0  0  0  0
 12 16  2  0  0  0  0
 12  6  1  0  0  0  0
 13 15  1  0  0  0  0
 13  5  1  0  0  0  0
 14  2  1  0  0  0  0
 14 10  2  0  0  0  0
 15 11  2  0  0  0  0
 16 14  1  0  0  0  0
 19 11  1  0  0  0  0
 19 21  2  0  0  0  0
 20 17  2  0  0  0  0
 20 25  1  0  0  0  0
 21 20  1  0  0  0  0
 22  1  1  0  0  0  0
 23 12  1  0  0  0  0
 24 23  1  0  0  0  0
 26 25  1  0  0  0  0
 27 21  1  0  0  0  0
 28 27  1  0  0  0  0
M  END
>  <MODEL>
14

>  <REMARK>
 VINA RESULT:    -7.158     18.030     21.225
 INTER + INTRA:          -8.675
 INTER:                  -8.390
 INTRA:                  -0.285
 UNBOUND:                -0.262
  3 active torsions:
  status: ('A' for Active; 'I' for Inactive)
    1  A    between atoms: O3_3  and  C9_15 
    2  A    between atoms: O4_4  and  C17_23 
    3  A    between atoms: O5_5  and  C18_24 

>  <TORSDO>
F 3

$$$$
./Sanguirubina.pdbqt
 OpenBabel10282519553D

 28 32  0  0  0  0  0  0  0  0999 V2000
  -42.9420   30.5210    3.5910 O   0  0  0  0  0  0  0  0  0  0  0  0
  -43.1910   32.8170    3.2150 O   0  0  0  0  0  0  0  0  0  0  0  0
  -43.3240   27.5080    0.6470 N   0  0  0  0  0  0  0  0  0  0  0  0
  -43.5880   27.8180   -0.7060 C   0  0  0  0  0  0  0  0  0  0  0  0
  -43.7700   29.1950   -1.0300 C   0  0  0  0  0  0  0  0  0  0  0  0
  -43.7110   30.2570   -0.0470 C   0  0  0  0  0  0  0  0  0  0  0  0
  -43.3990   29.8330    1.2780 C   0  0  0  0  0  0  0  0  0  0  0  0
  -43.6660   26.8300   -1.7710 C   0  0  0  0  0  0  0  0  0  0  0  0
  -43.2140   28.4600    1.5650 C   0  0  0  0  0  3  0  0  0  0  0  0
  -43.2500   30.7720    2.2830 C   0  0  0  0  0  0  0  0  0  0  0  0
  -43.8650   27.2530   -3.1090 C   0  0  0  0  0  0  0  0  0  0  0  0
  -43.9000   31.6600   -0.2330 C   0  0  0  0  0  0  0  0  0  0  0  0
  -43.9950   29.5510   -2.3840 C   0  0  0  0  0  2  0  0  0  0  0  0
  -43.4140   32.1510    2.0500 C   0  0  0  0  0  0  0  0  0  0  0  0
  -44.0350   28.6420   -3.3990 C   0  0  0  0  0  3  0  0  0  0  0  0
  -43.7570   32.6120    0.8000 C   0  0  0  0  0  3  0  0  0  0  0  0
  -43.5570   25.4150   -1.6250 C   0  0  0  0  0  3  0  0  0  0  0  0
  -43.1120   26.1440    1.1350 C   0  0  0  0  0  1  0  0  0  0  0  0
  -43.9010   26.3690   -4.2150 C   0  0  0  0  0  3  0  0  0  0  0  0
  -43.5890   24.5370   -2.6880 C   0  0  0  0  0  0  0  0  0  0  0  0
  -43.7600   25.0070   -4.0230 C   0  0  0  0  0  0  0  0  0  0  0  0
  -42.8740   31.8280    4.2160 C   0  0  0  0  0  2  0  0  0  0  0  0
  -44.2260   32.0650   -1.4740 O   0  0  0  0  0  0  0  0  0  0  0  0
  -43.9960   33.4020   -1.8980 C   0  0  0  0  0  1  0  0  0  0  0  0
  -43.4810   23.1880   -2.5920 O   0  0  0  0  0  0  0  0  0  0  0  0
  -42.1980   22.5960   -2.4920 C   0  0  0  0  0  1  0  0  0  0  0  0
  -43.8480   24.2790   -5.1510 O   0  0  0  0  0  0  0  0  0  0  0  0
  -43.5180   24.8530   -6.4070 C   0  0  0  0  0  1  0  0  0  0  0  0
  1 22  1  0  0  0  0
  2 22  1  0  0  0  0
  3 18  1  0  0  0  0
  3  9  1  0  0  0  0
  4  3  1  0  0  0  0
  5  4  1  0  0  0  0
  5  6  2  0  0  0  0
  6  7  1  0  0  0  0
  7  9  2  0  0  0  0
  7 10  1  0  0  0  0
  8 17  1  0  0  0  0
  8  4  2  0  0  0  0
 10  1  1  0  0  0  0
 11  8  1  0  0  0  0
 12  6  1  0  0  0  0
 12 16  2  0  0  0  0
 13  5  1  0  0  0  0
 14 10  2  0  0  0  0
 14  2  1  0  0  0  0
 15 11  2  0  0  0  0
 15 13  1  0  0  0  0
 16 14  1  0  0  0  0
 19 21  2  0  0  0  0
 19 11  1  0  0  0  0
 20 25  1  0  0  0  0
 20 17  2  0  0  0  0
 21 20  1  0  0  0  0
 23 12  1  0  0  0  0
 24 23  1  0  0  0  0
 25 26  1  0  0  0  0
 27 21  1  0  0  0  0
 28 27  1  0  0  0  0
M  END
>  <MODEL>
15

>  <REMARK>
 VINA RESULT:    -7.145     15.831     18.173
 INTER + INTRA:          -8.660
 INTER:                  -8.387
 INTRA:                  -0.273
 UNBOUND:                -0.262
  3 active torsions:
  status: ('A' for Active; 'I' for Inactive)
    1  A    between atoms: O3_3  and  C9_15 
    2  A    between atoms: O4_4  and  C17_23 
    3  A    between atoms: O5_5  and  C18_24 

>  <TORSDO>
F 3

$$$$
./Sanguirubina.pdbqt
 OpenBabel10282519553D

 28 32  0  0  0  0  0  0  0  0999 V2000
  -40.8400   18.9570  -17.5010 O   0  0  0  0  0  0  0  0  0  0  0  0
  -42.9300   19.4980  -16.5980 O   0  0  0  0  0  0  0  0  0  0  0  0
  -37.1400   20.5640  -16.2270 N   0  0  0  0  0  0  0  0  0  0  0  0
  -37.0560   21.4800  -15.1550 C   0  0  0  0  0  0  0  0  0  0  0  0
  -38.2830   21.8810  -14.5490 C   0  0  0  0  0  0  0  0  0  0  0  0
  -39.5790   21.4070  -14.9900 C   0  0  0  0  0  0  0  0  0  0  0  0
  -39.5410   20.4560  -16.0520 C   0  0  0  0  0  0  0  0  0  0  0  0
  -35.8080   22.0140  -14.6330 C   0  0  0  0  0  0  0  0  0  0  0  0
  -38.3070   20.0700  -16.6250 C   0  0  0  0  0  3  0  0  0  0  0  0
  -40.7180   19.8860  -16.5050 C   0  0  0  0  0  0  0  0  0  0  0  0
  -35.8280   22.8740  -13.5070 C   0  0  0  0  0  0  0  0  0  0  0  0
  -40.8730   21.7470  -14.4930 C   0  0  0  0  0  0  0  0  0  0  0  0
  -38.2370   22.7660  -13.4430 C   0  0  0  0  0  3  0  0  0  0  0  0
  -41.9730   20.2260  -15.9640 C   0  0  0  0  0  0  0  0  0  0  0  0
  -37.0750   23.2480  -12.9180 C   0  0  0  0  0  3  0  0  0  0  0  0
  -42.0700   21.1700  -14.9680 C   0  0  0  0  0  3  0  0  0  0  0  0
  -34.4980   21.7630  -15.1420 C   0  0  0  0  0  2  0  0  0  0  0  0
  -35.9710   20.0560  -16.9490 C   0  0  0  0  0  1  0  0  0  0  0  0
  -34.6610   23.3980  -12.8980 C   0  0  0  0  0  3  0  0  0  0  0  0
  -33.3500   22.2630  -14.5640 C   0  0  0  0  0  0  0  0  0  0  0  0
  -33.4130   23.1000  -13.4120 C   0  0  0  0  0  0  0  0  0  0  0  0
  -42.2610   18.6680  -17.5690 C   0  0  0  0  0  2  0  0  0  0  0  0
  -40.9190   22.6680  -13.5120 O   0  0  0  0  0  0  0  0  0  0  0  0
  -42.1560   23.1920  -13.0490 C   0  0  0  0  0  1  0  0  0  0  0  0
  -32.0890   22.0410  -15.0120 O   0  0  0  0  0  0  0  0  0  0  0  0
  -31.8950   21.4300  -16.2760 C   0  0  0  0  0  1  0  0  0  0  0  0
  -32.3930   23.6900  -12.7620 O   0  0  0  0  0  0  0  0  0  0  0  0
  -32.6450   24.6230  -11.7230 C   0  0  0  0  0  1  0  0  0  0  0  0
  1 10  1  0  0  0  0
  2 14  1  0  0  0  0
  3  4  1  0  0  0  0
  4  8  2  0  0  0  0
  4  5  1  0  0  0  0
  5 13  1  0  0  0  0
  6  5  2  0  0  0  0
  6 12  1  0  0  0  0
  7  6  1  0  0  0  0
  8 11  1  0  0  0  0
  9  3  1  0  0  0  0
  9  7  2  0  0  0  0
 10  7  1  0  0  0  0
 10 14  2  0  0  0  0
 11 15  1  0  0  0  0
 11 19  2  0  0  0  0
 12 23  1  0  0  0  0
 13 15  2  0  0  0  0
 14 16  1  0  0  0  0
 16 12  2  0  0  0  0
 17  8  1  0  0  0  0
 17 20  1  0  0  0  0
 18  3  1  0  0  0  0
 20 21  2  0  0  0  0
 21 19  1  0  0  0  0
 21 27  1  0  0  0  0
 22  1  1  0  0  0  0
 22  2  1  0  0  0  0
 23 24  1  0  0  0  0
 25 20  1  0  0  0  0
 26 25  1  0  0  0  0
 27 28  1  0  0  0  0
M  END
>  <MODEL>
16

>  <REMARK>
 VINA RESULT:    -7.133      2.461      8.389
 INTER + INTRA:          -8.646
 INTER:                  -8.379
 INTRA:                  -0.266
 UNBOUND:                -0.262
  3 active torsions:
  status: ('A' for Active; 'I' for Inactive)
    1  A    between atoms: O3_3  and  C9_15 
    2  A    between atoms: O4_4  and  C17_23 
    3  A    between atoms: O5_5  and  C18_24 

>  <TORSDO>
F 3

$$$$
./Sanguirubina.pdbqt
 OpenBabel10282519553D

 28 32  0  0  0  0  0  0  0  0999 V2000
   -8.7880   36.6230   12.3750 O   0  0  0  0  0  0  0  0  0  0  0  0
  -10.0570   38.5870   12.4820 O   0  0  0  0  0  0  0  0  0  0  0  0
   -5.7030   35.8600    9.5830 N   0  0  0  0  0  0  0  0  0  0  0  0
   -5.3120   36.8210    8.6240 C   0  0  0  0  0  0  0  0  0  0  0  0
   -6.0400   38.0480    8.6040 C   0  0  0  0  0  0  0  0  0  0  0  0
   -7.1440   38.3300    9.4970 C   0  0  0  0  0  0  0  0  0  0  0  0
   -7.4240   37.3070   10.4490 C   0  0  0  0  0  0  0  0  0  0  0  0
   -4.2170   36.6390    7.6840 C   0  0  0  0  0  0  0  0  0  0  0  0
   -6.6770   36.1060   10.4500 C   0  0  0  0  0  3  0  0  0  0  0  0
   -8.4150   37.5020   11.3950 C   0  0  0  0  0  0  0  0  0  0  0  0
   -3.8590   37.6940    6.8080 C   0  0  0  0  0  0  0  0  0  0  0  0
   -7.9660   39.4970    9.5620 C   0  0  0  0  0  0  0  0  0  0  0  0
   -5.6510   39.0530    7.6840 C   0  0  0  0  0  2  0  0  0  0  0  0
   -9.1820   38.6820   11.4450 C   0  0  0  0  0  0  0  0  0  0  0  0
   -4.6040   38.9140    6.8210 C   0  0  0  0  0  3  0  0  0  0  0  0
   -8.9820   39.6840   10.5240 C   0  0  0  0  0  3  0  0  0  0  0  0
   -3.4160   35.4680    7.5300 C   0  0  0  0  0  3  0  0  0  0  0  0
   -5.0530   34.5560    9.7300 C   0  0  0  0  0  1  0  0  0  0  0  0
   -2.7760   37.6270    5.8980 C   0  0  0  0  0  3  0  0  0  0  0  0
   -2.3570   35.3810    6.6510 C   0  0  0  0  0  0  0  0  0  0  0  0
   -2.0110   36.4790    5.8090 C   0  0  0  0  0  0  0  0  0  0  0  0
   -9.8350   37.3070   13.1110 C   0  0  0  0  0  2  0  0  0  0  0  0
   -7.7280   40.4530    8.6460 O   0  0  0  0  0  0  0  0  0  0  0  0
   -8.7830   41.0240    7.8840 C   0  0  0  0  0  1  0  0  0  0  0  0
   -1.5690   34.2910    6.4810 O   0  0  0  0  0  0  0  0  0  0  0  0
   -2.1130   32.9980    6.6810 C   0  0  0  0  0  1  0  0  0  0  0  0
   -1.0370   36.5340    4.8820 O   0  0  0  0  0  0  0  0  0  0  0  0
   -0.5840   37.7850    4.3890 C   0  0  0  0  0  1  0  0  0  0  0  0
  1 22  1  0  0  0  0
  2 22  1  0  0  0  0
  3 18  1  0  0  0  0
  3  9  1  0  0  0  0
  4  3  1  0  0  0  0
  5  4  1  0  0  0  0
  5  6  2  0  0  0  0
  6 12  1  0  0  0  0
  6  7  1  0  0  0  0
  7  9  2  0  0  0  0
  7 10  1  0  0  0  0
  8  4  2  0  0  0  0
 10 14  2  0  0  0  0
 10  1  1  0  0  0  0
 11 15  2  0  0  0  0
 11  8  1  0  0  0  0
 12 16  2  0  0  0  0
 13  5  1  0  0  0  0
 14  2  1  0  0  0  0
 15 13  1  0  0  0  0
 16 14  1  0  0  0  0
 17  8  1  0  0  0  0
 19 11  1  0  0  0  0
 20 17  2  0  0  0  0
 21 19  2  0  0  0  0
 21 20  1  0  0  0  0
 23 12  1  0  0  0  0
 24 23  1  0  0  0  0
 25 20  1  0  0  0  0
 25 26  1  0  0  0  0
 27 21  1  0  0  0  0
 28 27  1  0  0  0  0
M  END
>  <MODEL>
17

>  <REMARK>
 VINA RESULT:    -7.131     38.565     39.641
 INTER + INTRA:          -8.644
 INTER:                  -8.375
 INTRA:                  -0.269
 UNBOUND:                -0.262
  3 active torsions:
  status: ('A' for Active; 'I' for Inactive)
    1  A    between atoms: O3_3  and  C9_15 
    2  A    between atoms: O4_4  and  C17_23 
    3  A    between atoms: O5_5  and  C18_24 

>  <TORSDO>
F 3

$$$$
./Sanguirubina.pdbqt
 OpenBabel10282519553D

 28 32  0  0  0  0  0  0  0  0999 V2000
  -32.3570   17.4960  -19.4980 O   0  0  0  0  0  0  0  0  0  0  0  0
  -34.0640   16.3310  -20.5960 O   0  0  0  0  0  0  0  0  0  0  0  0
  -32.9390   20.4910  -16.5690 N   0  0  0  0  0  0  0  0  0  0  0  0
  -34.2290   20.8610  -16.1280 C   0  0  0  0  0  0  0  0  0  0  0  0
  -35.3360   20.2130  -16.7520 C   0  0  0  0  0  0  0  0  0  0  0  0
  -35.1900   19.2270  -17.8030 C   0  0  0  0  0  0  0  0  0  0  0  0
  -33.8430   18.9020  -18.1390 C   0  0  0  0  0  0  0  0  0  0  0  0
  -34.4870   21.8360  -15.0800 C   0  0  0  0  0  0  0  0  0  0  0  0
  -32.7670   19.5560  -17.4940 C   0  0  0  0  0  3  0  0  0  0  0  0
  -33.5880   17.9230  -19.0820 C   0  0  0  0  0  0  0  0  0  0  0  0
  -35.8180   22.0840  -14.6620 C   0  0  0  0  0  0  0  0  0  0  0  0
  -36.2070   18.5290  -18.5230 C   0  0  0  0  0  0  0  0  0  0  0  0
  -36.6460   20.5260  -16.3080 C   0  0  0  0  0  2  0  0  0  0  0  0
  -34.6210   17.2350  -19.7470 C   0  0  0  0  0  0  0  0  0  0  0  0
  -36.9030   21.4100  -15.3020 C   0  0  0  0  0  3  0  0  0  0  0  0
  -35.9380   17.5380  -19.4920 C   0  0  0  0  0  3  0  0  0  0  0  0
  -33.5120   22.6120  -14.3840 C   0  0  0  0  0  3  0  0  0  0  0  0
  -31.7060   21.0640  -16.0250 C   0  0  0  0  0  1  0  0  0  0  0  0
  -36.1600   22.9750  -13.6150 C   0  0  0  0  0  3  0  0  0  0  0  0
  -33.8220   23.4830  -13.3610 C   0  0  0  0  0  0  0  0  0  0  0  0
  -35.1740   23.6800  -12.9500 C   0  0  0  0  0  0  0  0  0  0  0  0
  -32.6320   16.4470  -20.4630 C   0  0  0  0  0  2  0  0  0  0  0  0
  -37.4800   18.8530  -18.2340 O   0  0  0  0  0  0  0  0  0  0  0  0
  -38.4300   19.1040  -19.2610 C   0  0  0  0  0  1  0  0  0  0  0  0
  -32.9260   24.2310  -12.6710 O   0  0  0  0  0  0  0  0  0  0  0  0
  -31.9820   23.5880  -11.8310 C   0  0  0  0  0  1  0  0  0  0  0  0
  -35.6360   24.5160  -12.0020 O   0  0  0  0  0  0  0  0  0  0  0  0
  -36.5780   24.0640  -11.0410 C   0  0  0  0  0  1  0  0  0  0  0  0
  1 10  1  0  0  0  0
  2 22  1  0  0  0  0
  2 14  1  0  0  0  0
  3  4  1  0  0  0  0
  3 18  1  0  0  0  0
  4  8  2  0  0  0  0
  5 13  1  0  0  0  0
  5  4  1  0  0  0  0
  6  5  2  0  0  0  0
  7  6  1  0  0  0  0
  7  9  2  0  0  0  0
  8 11  1  0  0  0  0
  8 17  1  0  0  0  0
  9  3  1  0  0  0  0
 10  7  1  0  0  0  0
 11 19  1  0  0  0  0
 12 23  1  0  0  0  0
 12  6  1  0  0  0  0
 13 15  1  0  0  0  0
 14 16  1  0  0  0  0
 14 10  2  0  0  0  0
 15 11  2  0  0  0  0
 16 12  2  0  0  0  0
 17 20  2  0  0  0  0
 19 21  2  0  0  0  0
 20 21  1  0  0  0  0
 20 25  1  0  0  0  0
 21 27  1  0  0  0  0
 22  1  1  0  0  0  0
 24 23  1  0  0  0  0
 25 26  1  0  0  0  0
 27 28  1  0  0  0  0
M  END
>  <MODEL>
18

>  <REMARK>
 VINA RESULT:    -7.068      2.368      7.291
 INTER + INTRA:          -8.569
 INTER:                  -8.291
 INTRA:                  -0.279
 UNBOUND:                -0.262
  3 active torsions:
  status: ('A' for Active; 'I' for Inactive)
    1  A    between atoms: O3_3  and  C9_15 
    2  A    between atoms: O4_4  and  C17_23 
    3  A    between atoms: O5_5  and  C18_24 

>  <TORSDO>
F 3

$$$$
./Sanguirubina.pdbqt
 OpenBabel10282519553D

 28 32  0  0  0  0  0  0  0  0999 V2000
  -34.1420   19.3690  -18.1620 O   0  0  0  0  0  0  0  0  0  0  0  0
  -32.1820   20.4110  -17.4240 O   0  0  0  0  0  0  0  0  0  0  0  0
  -38.0010   20.0060  -16.5510 N   0  0  0  0  0  0  0  0  0  0  0  0
  -38.2290   20.9280  -15.5060 C   0  0  0  0  0  0  0  0  0  0  0  0
  -37.0880   21.6040  -14.9800 C   0  0  0  0  0  0  0  0  0  0  0  0
  -35.7390   21.3730  -15.4560 C   0  0  0  0  0  0  0  0  0  0  0  0
  -35.6330   20.4520  -16.5390 C   0  0  0  0  0  0  0  0  0  0  0  0
  -39.5410   21.2350  -14.9570 C   0  0  0  0  0  0  0  0  0  0  0  0
  -36.7850   19.8070  -17.0450 C   0  0  0  0  0  3  0  0  0  0  0  0
  -34.3990   20.2110  -17.1160 C   0  0  0  0  0  0  0  0  0  0  0  0
  -39.6690   22.2300  -13.9570 C   0  0  0  0  0  0  0  0  0  0  0  0
  -34.5180   21.9580  -15.0010 C   0  0  0  0  0  0  0  0  0  0  0  0
  -37.2800   22.5680  -13.9590 C   0  0  0  0  0  3  0  0  0  0  0  0
  -33.2220   20.8330  -16.6570 C   0  0  0  0  0  0  0  0  0  0  0  0
  -38.5060   22.8940  -13.4590 C   0  0  0  0  0  3  0  0  0  0  0  0
  -33.2610   21.6980  -15.5880 C   0  0  0  0  0  3  0  0  0  0  0  0
  -40.7780   20.6260  -15.3250 C   0  0  0  0  0  2  0  0  0  0  0  0
  -39.0680   19.2370  -17.1950 C   0  0  0  0  0  1  0  0  0  0  0  0
  -40.9090   22.6320  -13.4030 C   0  0  0  0  0  3  0  0  0  0  0  0
  -41.9960   21.0030  -14.8000 C   0  0  0  0  0  0  0  0  0  0  0  0
  -42.0840   22.0320  -13.8170 C   0  0  0  0  0  0  0  0  0  0  0  0
  -32.7170   19.4940  -18.4010 C   0  0  0  0  0  2  0  0  0  0  0  0
  -34.6060   22.8040  -13.9580 O   0  0  0  0  0  0  0  0  0  0  0  0
  -33.4440   23.2840  -13.2970 C   0  0  0  0  0  1  0  0  0  0  0  0
  -43.1930   20.4560  -15.1290 O   0  0  0  0  0  0  0  0  0  0  0  0
  -43.3200   19.0460  -15.1970 C   0  0  0  0  0  1  0  0  0  0  0  0
  -43.1860   22.4820  -13.1880 O   0  0  0  0  0  0  0  0  0  0  0  0
  -43.1890   23.7570  -12.5650 C   0  0  0  0  0  1  0  0  0  0  0  0
  1 10  1  0  0  0  0
  2 14  1  0  0  0  0
  3  4  1  0  0  0  0
  4  5  1  0  0  0  0
  4  8  2  0  0  0  0
  5 13  1  0  0  0  0
  6 12  1  0  0  0  0
  6  5  2  0  0  0  0
  7  6  1  0  0  0  0
  8 11  1  0  0  0  0
  9  3  1  0  0  0  0
  9  7  2  0  0  0  0
 10 14  2  0  0  0  0
 10  7  1  0  0  0  0
 11 15  1  0  0  0  0
 11 19  2  0  0  0  0
 12 23  1  0  0  0  0
 13 15  2  0  0  0  0
 14 16  1  0  0  0  0
 16 12  2  0  0  0  0
 17  8  1  0  0  0  0
 17 20  1  0  0  0  0
 18  3  1  0  0  0  0
 20 21  2  0  0  0  0
 21 19  1  0  0  0  0
 21 27  1  0  0  0  0
 22  1  1  0  0  0  0
 22  2  1  0  0  0  0
 23 24  1  0  0  0  0
 25 20  1  0  0  0  0
 26 25  1  0  0  0  0
 27 28  1  0  0  0  0
M  END
>  <MODEL>
19

>  <REMARK>
 VINA RESULT:    -7.066      3.139      5.532
 INTER + INTRA:          -8.568
 INTER:                  -8.303
 INTRA:                  -0.265
 UNBOUND:                -0.262
  3 active torsions:
  status: ('A' for Active; 'I' for Inactive)
    1  A    between atoms: O3_3  and  C9_15 
    2  A    between atoms: O4_4  and  C17_23 
    3  A    between atoms: O5_5  and  C18_24 

>  <TORSDO>
F 3

$$$$
./Sanguirubina.pdbqt
 OpenBabel10282519553D

 28 32  0  0  0  0  0  0  0  0999 V2000
  -44.8990   23.7050   -0.5290 O   0  0  0  0  0  0  0  0  0  0  0  0
  -44.5130   21.7710    0.7310 O   0  0  0  0  0  0  0  0  0  0  0  0
  -43.5720   27.5890    0.4940 N   0  0  0  0  0  0  0  0  0  0  0  0
  -42.7970   27.8310    1.6510 C   0  0  0  0  0  0  0  0  0  0  0  0
  -42.5220   26.7110    2.4900 C   0  0  0  0  0  0  0  0  0  0  0  0
  -43.0070   25.3740    2.2150 C   0  0  0  0  0  0  0  0  0  0  0  0
  -43.7430   25.2390    1.0020 C   0  0  0  0  0  0  0  0  0  0  0  0
  -42.2600   29.1320    2.0170 C   0  0  0  0  0  0  0  0  0  0  0  0
  -43.9900   26.3680    0.1850 C   0  0  0  0  0  3  0  0  0  0  0  0
  -44.1940   23.9930    0.6080 C   0  0  0  0  0  0  0  0  0  0  0  0
  -41.4340   29.2540    3.1620 C   0  0  0  0  0  0  0  0  0  0  0  0
  -42.8280   24.1820    2.9820 C   0  0  0  0  0  0  0  0  0  0  0  0
  -41.7130   26.9050    3.6380 C   0  0  0  0  0  3  0  0  0  0  0  0
  -43.9680   22.8360    1.3780 C   0  0  0  0  0  0  0  0  0  0  0  0
  -41.1710   28.1090    3.9770 C   0  0  0  0  0  3  0  0  0  0  0  0
  -43.3010   22.9150    2.5780 C   0  0  0  0  0  3  0  0  0  0  0  0
  -42.4710   30.3630    1.3270 C   0  0  0  0  0  2  0  0  0  0  0  0
  -43.9360   28.6330   -0.4660 C   0  0  0  0  0  1  0  0  0  0  0  0
  -40.8240   30.4670    3.5660 C   0  0  0  0  0  3  0  0  0  0  0  0
  -41.8870   31.5540    1.7020 C   0  0  0  0  0  0  0  0  0  0  0  0
  -41.0370   31.6270    2.8440 C   0  0  0  0  0  0  0  0  0  0  0  0
  -45.1010   22.2690   -0.4890 C   0  0  0  0  0  2  0  0  0  0  0  0
  -42.1610   24.3080    4.1440 O   0  0  0  0  0  0  0  0  0  0  0  0
  -42.6820   23.7750    5.3540 C   0  0  0  0  0  1  0  0  0  0  0  0
  -42.0570   32.7420    1.0690 O   0  0  0  0  0  0  0  0  0  0  0  0
  -43.2480   32.9790    0.3380 C   0  0  0  0  0  1  0  0  0  0  0  0
  -40.4290   32.7140    3.3540 O   0  0  0  0  0  0  0  0  0  0  0  0
  -39.0730   32.9930    3.0410 C   0  0  0  0  0  1  0  0  0  0  0  0
  1 22  1  0  0  0  0
  1 10  1  0  0  0  0
  2 14  1  0  0  0  0
  3  4  1  0  0  0  0
  4  8  2  0  0  0  0
  4  5  1  0  0  0  0
  5 13  1  0  0  0  0
  6  5  2  0  0  0  0
  6 12  1  0  0  0  0
  7  6  1  0  0  0  0
  8 11  1  0  0  0  0
  9  3  1  0  0  0  0
  9  7  2  0  0  0  0
 10  7  1  0  0  0  0
 10 14  2  0  0  0  0
 11 19  2  0  0  0  0
 11 15  1  0  0  0  0
 12 23  1  0  0  0  0
 13 15  2  0  0  0  0
 14 16  1  0  0  0  0
 16 12  2  0  0  0  0
 17 20  1  0  0  0  0
 17  8  1  0  0  0  0
 18  3  1  0  0  0  0
 20 21  2  0  0  0  0
 21 27  1  0  0  0  0
 21 19  1  0  0  0  0
 22  2  1  0  0  0  0
 23 24  1  0  0  0  0
 25 20  1  0  0  0  0
 26 25  1  0  0  0  0
 28 27  1  0  0  0  0
M  END
>  <MODEL>
20

>  <REMARK>
 VINA RESULT:    -6.952     18.201     20.359
 INTER + INTRA:          -8.433
 INTER:                  -8.157
 INTRA:                  -0.277
 UNBOUND:                -0.262
  3 active torsions:
  status: ('A' for Active; 'I' for Inactive)
    1  A    between atoms: O3_3  and  C9_15 
    2  A    between atoms: O4_4  and  C17_23 
    3  A    between atoms: O5_5  and  C18_24 

>  <TORSDO>
F 3

$$$$
