./Sanguilutina.pdbqt
 OpenBabel10282519553D

 29 32  0  0  0  0  0  0  0  0999 V2000
  -35.2990   22.8690  -14.2080 N   0  0  0  0  0  0  0  0  0  0  0  0
  -34.0580   22.2030  -14.3160 C   0  0  0  0  0  0  0  0  0  0  0  0
  -34.0200   21.1250  -15.2490 C   0  0  0  0  0  0  0  0  0  0  0  0
  -35.1720   20.6970  -16.0350 C   0  0  0  0  0  0  0  0  0  0  0  0
  -32.8670   22.5470  -13.5560 C   0  0  0  0  0  0  0  0  0  0  0  0
  -36.3800   21.4450  -15.8680 C   0  0  0  0  0  0  0  0  0  0  0  0
  -31.6820   21.8030  -13.7700 C   0  0  0  0  0  0  0  0  0  0  0  0
  -36.3640   22.5140  -14.9140 C   0  0  0  0  0  3  0  0  0  0  0  0
  -32.7950   20.4220  -15.4380 C   0  0  0  0  0  2  0  0  0  0  0  0
  -35.2370   19.6120  -16.9580 C   0  0  0  0  0  0  0  0  0  0  0  0
  -31.6710   20.7510  -14.7290 C   0  0  0  0  0  3  0  0  0  0  0  0
  -37.5690   21.1610  -16.5800 C   0  0  0  0  0  0  0  0  0  0  0  0
  -32.7280   23.5860  -12.5720 C   0  0  0  0  0  3  0  0  0  0  0  0
  -35.4960   24.0050  -13.2930 C   0  0  0  0  0  1  0  0  0  0  0  0
  -30.4660   22.0350  -13.0690 C   0  0  0  0  0  3  0  0  0  0  0  0
  -37.5910   20.0230  -17.4280 C   0  0  0  0  0  0  0  0  0  0  0  0
  -36.4210   19.2880  -17.6160 C   0  0  0  0  0  3  0  0  0  0  0  0
  -31.5590   23.8220  -11.8790 C   0  0  0  0  0  0  0  0  0  0  0  0
  -30.3850   23.0270  -12.1150 C   0  0  0  0  0  0  0  0  0  0  0  0
  -34.1130   18.8910  -17.1720 O   0  0  0  0  0  0  0  0  0  0  0  0
  -34.1460   17.6990  -17.9560 C   0  0  0  0  0  1  0  0  0  0  0  0
  -38.7930   19.7590  -17.9880 O   0  0  0  0  0  0  0  0  0  0  0  0
  -39.6910   18.9160  -17.2540 C   0  0  0  0  0  1  0  0  0  0  0  0
  -38.6350   21.9510  -16.2670 O   0  0  0  0  0  0  0  0  0  0  0  0
  -39.0520   22.9720  -17.1730 C   0  0  0  0  0  1  0  0  0  0  0  0
  -31.3810   24.7750  -10.9270 O   0  0  0  0  0  0  0  0  0  0  0  0
  -32.4230   25.1160  -10.0190 C   0  0  0  0  0  1  0  0  0  0  0  0
  -29.1630   23.1050  -11.5420 O   0  0  0  0  0  0  0  0  0  0  0  0
  -27.9840   22.9700  -12.3330 C   0  0  0  0  0  1  0  0  0  0  0  0
  1 14  1  0  0  0  0
  2  1  1  0  0  0  0
  2  5  2  0  0  0  0
  3  2  1  0  0  0  0
  4  6  1  0  0  0  0
  4  3  2  0  0  0  0
  5 13  1  0  0  0  0
  6  8  2  0  0  0  0
  7  5  1  0  0  0  0
  7 15  1  0  0  0  0
  8  1  1  0  0  0  0
  9  3  1  0  0  0  0
  9 11  1  0  0  0  0
 10  4  1  0  0  0  0
 11  7  2  0  0  0  0
 12 24  1  0  0  0  0
 12  6  1  0  0  0  0
 13 18  2  0  0  0  0
 15 19  2  0  0  0  0
 16 12  2  0  0  0  0
 17 16  1  0  0  0  0
 17 10  2  0  0  0  0
 18 26  1  0  0  0  0
 19 18  1  0  0  0  0
 19 28  1  0  0  0  0
 20 10  1  0  0  0  0
 21 20  1  0  0  0  0
 22 16  1  0  0  0  0
 22 23  1  0  0  0  0
 25 24  1  0  0  0  0
 26 27  1  0  0  0  0
 29 28  1  0  0  0  0
M  END
>  <MODEL>
1

>  <REMARK>
 VINA RESULT:    -8.589      0.000      0.000
 INTER + INTRA:         -11.393
 INTER:                 -11.099
 INTRA:                  -0.294
 UNBOUND:                -0.294
  5 active torsions:
  status: ('A' for Active; 'I' for Inactive)
    1  A    between atoms: O1_1  and  C9_15 
    2  A    between atoms: O2_2  and  C11_17 
    3  A    between atoms: O3_3  and  C15_21 
    4  A    between atoms: O4_4  and  C17_23 
    5  A    between atoms: O5_5  and  C18_24 

>  <TORSDO>
F 5

$$$$
./Sanguilutina.pdbqt
 OpenBabel10282519553D

 29 32  0  0  0  0  0  0  0  0999 V2000
  -35.1420   22.7940  -14.0430 N   0  0  0  0  0  0  0  0  0  0  0  0
  -34.5640   21.7560  -14.8080 C   0  0  0  0  0  0  0  0  0  0  0  0
  -33.1970   21.4700  -14.5180 C   0  0  0  0  0  0  0  0  0  0  0  0
  -32.4130   22.1950  -13.5240 C   0  0  0  0  0  0  0  0  0  0  0  0
  -35.2630   20.9980  -15.8330 C   0  0  0  0  0  0  0  0  0  0  0  0
  -33.0930   23.2180  -12.7880 C   0  0  0  0  0  0  0  0  0  0  0  0
  -34.5650   19.9750  -16.5190 C   0  0  0  0  0  0  0  0  0  0  0  0
  -34.4630   23.4670  -13.1240 C   0  0  0  0  0  3  0  0  0  0  0  0
  -32.5500   20.4160  -15.2260 C   0  0  0  0  0  2  0  0  0  0  0  0
  -31.0390   22.0050  -13.1960 C   0  0  0  0  0  0  0  0  0  0  0  0
  -33.2100   19.6960  -16.1850 C   0  0  0  0  0  3  0  0  0  0  0  0
  -32.4690   23.9860  -11.7780 C   0  0  0  0  0  0  0  0  0  0  0  0
  -36.6260   21.1580  -16.2620 C   0  0  0  0  0  3  0  0  0  0  0  0
  -36.5450   23.2030  -14.2200 C   0  0  0  0  0  1  0  0  0  0  0  0
  -35.1400   19.1850  -17.5540 C   0  0  0  0  0  3  0  0  0  0  0  0
  -31.0810   23.8010  -11.5500 C   0  0  0  0  0  0  0  0  0  0  0  0
  -30.4020   22.8000  -12.2460 C   0  0  0  0  0  3  0  0  0  0  0  0
  -37.1960   20.4050  -17.2670 C   0  0  0  0  0  0  0  0  0  0  0  0
  -36.4430   19.3900  -17.9500 C   0  0  0  0  0  0  0  0  0  0  0  0
  -30.3600   21.0320  -13.8440 O   0  0  0  0  0  0  0  0  0  0  0  0
  -28.9690   20.8260  -13.6020 C   0  0  0  0  0  1  0  0  0  0  0  0
  -30.5380   24.6460  -10.6460 O   0  0  0  0  0  0  0  0  0  0  0  0
  -30.3240   24.1440   -9.3210 C   0  0  0  0  0  1  0  0  0  0  0  0
  -33.2560   24.9430  -11.2090 O   0  0  0  0  0  0  0  0  0  0  0  0
  -33.0500   26.3170  -11.5340 C   0  0  0  0  0  1  0  0  0  0  0  0
  -38.4700   20.5300  -17.7240 O   0  0  0  0  0  0  0  0  0  0  0  0
  -39.5580   19.8920  -17.0630 C   0  0  0  0  0  1  0  0  0  0  0  0
  -36.8250   18.5600  -18.9480 O   0  0  0  0  0  0  0  0  0  0  0  0
  -36.1250   17.3400  -19.1810 C   0  0  0  0  0  1  0  0  0  0  0  0
  1  8  1  0  0  0  0
  2  3  1  0  0  0  0
  2  1  1  0  0  0  0
  3  4  2  0  0  0  0
  4 10  1  0  0  0  0
  4  6  1  0  0  0  0
  5  2  2  0  0  0  0
  6 12  1  0  0  0  0
  7 11  2  0  0  0  0
  7  5  1  0  0  0  0
  8  6  2  0  0  0  0
  9  3  1  0  0  0  0
 10 17  2  0  0  0  0
 11  9  1  0  0  0  0
 12 16  2  0  0  0  0
 12 24  1  0  0  0  0
 13  5  1  0  0  0  0
 14  1  1  0  0  0  0
 15  7  1  0  0  0  0
 16 22  1  0  0  0  0
 17 16  1  0  0  0  0
 18 13  2  0  0  0  0
 19 15  2  0  0  0  0
 19 18  1  0  0  0  0
 20 21  1  0  0  0  0
 20 10  1  0  0  0  0
 22 23  1  0  0  0  0
 25 24  1  0  0  0  0
 26 18  1  0  0  0  0
 26 27  1  0  0  0  0
 28 19  1  0  0  0  0
 29 28  1  0  0  0  0
M  END
>  <MODEL>
2

>  <REMARK>
 VINA RESULT:    -8.549      1.382      7.583
 INTER + INTRA:         -11.342
 INTER:                 -11.100
 INTRA:                  -0.242
 UNBOUND:                -0.294
  5 active torsions:
  status: ('A' for Active; 'I' for Inactive)
    1  A    between atoms: O1_1  and  C9_15 
    2  A    between atoms: O2_2  and  C11_17 
    3  A    between atoms: O3_3  and  C15_21 
    4  A    between atoms: O4_4  and  C17_23 
    5  A    between atoms: O5_5  and  C18_24 

>  <TORSDO>
F 5

$$$$
./Sanguilutina.pdbqt
 OpenBabel10282519553D

 29 32  0  0  0  0  0  0  0  0999 V2000
  -34.1820   23.6810  -12.6270 N   0  0  0  0  0  0  0  0  0  0  0  0
  -34.3870   22.7640  -13.6810 C   0  0  0  0  0  0  0  0  0  0  0  0
  -33.2280   22.0480  -14.1060 C   0  0  0  0  0  0  0  0  0  0  0  0
  -31.9020   22.2450  -13.5310 C   0  0  0  0  0  0  0  0  0  0  0  0
  -35.6670   22.5220  -14.3270 C   0  0  0  0  0  0  0  0  0  0  0  0
  -31.7990   23.1850  -12.4550 C   0  0  0  0  0  0  0  0  0  0  0  0
  -35.7350   21.5640  -15.3670 C   0  0  0  0  0  0  0  0  0  0  0  0
  -32.9920   23.8780  -12.0730 C   0  0  0  0  0  3  0  0  0  0  0  0
  -33.3590   21.0820  -15.1450 C   0  0  0  0  0  2  0  0  0  0  0  0
  -30.6870   21.6080  -13.9150 C   0  0  0  0  0  0  0  0  0  0  0  0
  -34.5650   20.8480  -15.7480 C   0  0  0  0  0  3  0  0  0  0  0  0
  -30.5840   23.4600  -11.7860 C   0  0  0  0  0  0  0  0  0  0  0  0
  -36.9250   23.1550  -14.0390 C   0  0  0  0  0  3  0  0  0  0  0  0
  -35.2790   24.4900  -12.0730 C   0  0  0  0  0  1  0  0  0  0  0  0
  -36.9260   21.2610  -16.0840 C   0  0  0  0  0  3  0  0  0  0  0  0
  -29.3960   22.8490  -12.2640 C   0  0  0  0  0  0  0  0  0  0  0  0
  -29.4760   21.9200  -13.3020 C   0  0  0  0  0  3  0  0  0  0  0  0
  -38.0870   22.8770  -14.7280 C   0  0  0  0  0  0  0  0  0  0  0  0
  -38.1050   21.9110  -15.7910 C   0  0  0  0  0  0  0  0  0  0  0  0
  -30.7360   20.6910  -14.9080 O   0  0  0  0  0  0  0  0  0  0  0  0
  -30.1750   20.9690  -16.1900 C   0  0  0  0  0  1  0  0  0  0  0  0
  -28.2650   23.2460  -11.6400 O   0  0  0  0  0  0  0  0  0  0  0  0
  -27.0170   22.8940  -12.2510 C   0  0  0  0  0  1  0  0  0  0  0  0
  -30.6620   24.4110  -10.8120 O   0  0  0  0  0  0  0  0  0  0  0  0
  -30.6220   24.0260   -9.4380 C   0  0  0  0  0  1  0  0  0  0  0  0
  -39.2960   23.4610  -14.5110 O   0  0  0  0  0  0  0  0  0  0  0  0
  -40.2400   22.8900  -13.6100 C   0  0  0  0  0  1  0  0  0  0  0  0
  -39.1340   21.5090  -16.5720 O   0  0  0  0  0  0  0  0  0  0  0  0
  -39.6690   20.1940  -16.4430 C   0  0  0  0  0  1  0  0  0  0  0  0
  1 14  1  0  0  0  0
  1  8  1  0  0  0  0
  2  1  1  0  0  0  0
  3  2  1  0  0  0  0
  3  4  2  0  0  0  0
  4  6  1  0  0  0  0
  5 13  1  0  0  0  0
  5  2  2  0  0  0  0
  6  8  2  0  0  0  0
  6 12  1  0  0  0  0
  7  5  1  0  0  0  0
  9  3  1  0  0  0  0
 10  4  1  0  0  0  0
 10 17  2  0  0  0  0
 11  7  2  0  0  0  0
 11  9  1  0  0  0  0
 12 24  1  0  0  0  0
 15 19  2  0  0  0  0
 15  7  1  0  0  0  0
 16 12  2  0  0  0  0
 16 22  1  0  0  0  0
 17 16  1  0  0  0  0
 18 26  1  0  0  0  0
 18 13  2  0  0  0  0
 19 18  1  0  0  0  0
 20 10  1  0  0  0  0
 21 20  1  0  0  0  0
 23 22  1  0  0  0  0
 24 25  1  0  0  0  0
 26 27  1  0  0  0  0
 28 29  1  0  0  0  0
 28 19  1  0  0  0  0
M  END
>  <MODEL>
3

>  <REMARK>
 VINA RESULT:    -8.446      1.702      7.652
 INTER + INTRA:         -11.208
 INTER:                 -11.037
 INTRA:                  -0.171
 UNBOUND:                -0.294
  5 active torsions:
  status: ('A' for Active; 'I' for Inactive)
    1  A    between atoms: O1_1  and  C9_15 
    2  A    between atoms: O2_2  and  C11_17 
    3  A    between atoms: O3_3  and  C15_21 
    4  A    between atoms: O4_4  and  C17_23 
    5  A    between atoms: O5_5  and  C18_24 

>  <TORSDO>
F 5

$$$$
./Sanguilutina.pdbqt
 OpenBabel10282519553D

 29 32  0  0  0  0  0  0  0  0999 V2000
  -33.9960   20.6610  -15.5090 N   0  0  0  0  0  0  0  0  0  0  0  0
  -34.1920   21.7290  -14.6050 C   0  0  0  0  0  0  0  0  0  0  0  0
  -35.5150   22.2610  -14.5620 C   0  0  0  0  0  0  0  0  0  0  0  0
  -36.6080   21.7740  -15.3970 C   0  0  0  0  0  0  0  0  0  0  0  0
  -33.1560   22.2910  -13.7540 C   0  0  0  0  0  0  0  0  0  0  0  0
  -36.3140   20.6770  -16.2690 C   0  0  0  0  0  0  0  0  0  0  0  0
  -33.4910   23.3560  -12.8840 C   0  0  0  0  0  0  0  0  0  0  0  0
  -34.9690   20.1860  -16.2750 C   0  0  0  0  0  3  0  0  0  0  0  0
  -35.8010   23.3200  -13.6540 C   0  0  0  0  0  3  0  0  0  0  0  0
  -37.9440   22.2670  -15.4500 C   0  0  0  0  0  0  0  0  0  0  0  0
  -34.8280   23.8440  -12.8450 C   0  0  0  0  0  3  0  0  0  0  0  0
  -37.2790   20.0860  -17.1170 C   0  0  0  0  0  0  0  0  0  0  0  0
  -31.7770   21.8920  -13.6760 C   0  0  0  0  0  2  0  0  0  0  0  0
  -32.6890   20.0020  -15.6640 C   0  0  0  0  0  1  0  0  0  0  0  0
  -32.5570   23.9970  -12.0230 C   0  0  0  0  0  3  0  0  0  0  0  0
  -38.5710   20.6700  -17.1790 C   0  0  0  0  0  0  0  0  0  0  0  0
  -38.8830   21.7310  -16.3280 C   0  0  0  0  0  3  0  0  0  0  0  0
  -30.8570   22.5050  -12.8510 C   0  0  0  0  0  0  0  0  0  0  0  0
  -31.2380   23.5980  -12.0000 C   0  0  0  0  0  0  0  0  0  0  0  0
  -38.2790   23.2850  -14.6250 O   0  0  0  0  0  0  0  0  0  0  0  0
  -39.5430   23.3050  -13.9620 C   0  0  0  0  0  1  0  0  0  0  0  0
  -39.4000   20.1140  -18.0900 O   0  0  0  0  0  0  0  0  0  0  0  0
  -40.3410   19.1410  -17.6190 C   0  0  0  0  0  1  0  0  0  0  0  0
  -36.8150   19.0770  -17.9070 O   0  0  0  0  0  0  0  0  0  0  0  0
  -36.4870   19.3380  -19.2720 C   0  0  0  0  0  1  0  0  0  0  0  0
  -29.5400   22.1820  -12.7550 O   0  0  0  0  0  0  0  0  0  0  0  0
  -28.9830   21.1180  -13.5200 C   0  0  0  0  0  1  0  0  0  0  0  0
  -30.4880   24.3170  -11.1330 O   0  0  0  0  0  0  0  0  0  0  0  0
  -30.4810   23.9960   -9.7440 C   0  0  0  0  0  1  0  0  0  0  0  0
  1  2  1  0  0  0  0
  2  3  1  0  0  0  0
  2  5  2  0  0  0  0
  3  9  1  0  0  0  0
  4  3  2  0  0  0  0
  5 13  1  0  0  0  0
  5  7  1  0  0  0  0
  6  4  1  0  0  0  0
  7 11  1  0  0  0  0
  7 15  2  0  0  0  0
  8  6  2  0  0  0  0
  8  1  1  0  0  0  0
  9 11  2  0  0  0  0
 10  4  1  0  0  0  0
 10 20  1  0  0  0  0
 12  6  1  0  0  0  0
 13 18  1  0  0  0  0
 14  1  1  0  0  0  0
 15 19  1  0  0  0  0
 16 12  2  0  0  0  0
 16 17  1  0  0  0  0
 17 10  2  0  0  0  0
 18 26  1  0  0  0  0
 18 19  2  0  0  0  0
 19 28  1  0  0  0  0
 20 21  1  0  0  0  0
 22 23  1  0  0  0  0
 22 16  1  0  0  0  0
 24 12  1  0  0  0  0
 25 24  1  0  0  0  0
 27 26  1  0  0  0  0
 28 29  1  0  0  0  0
M  END
>  <MODEL>
4

>  <REMARK>
 VINA RESULT:    -8.263      1.449      3.658
 INTER + INTRA:         -10.972
 INTER:                 -10.709
 INTRA:                  -0.264
 UNBOUND:                -0.294
  5 active torsions:
  status: ('A' for Active; 'I' for Inactive)
    1  A    between atoms: O1_1  and  C9_15 
    2  A    between atoms: O2_2  and  C11_17 
    3  A    between atoms: O3_3  and  C15_21 
    4  A    between atoms: O4_4  and  C17_23 
    5  A    between atoms: O5_5  and  C18_24 

>  <TORSDO>
F 5

$$$$
./Sanguilutina.pdbqt
 OpenBabel10282519553D

 29 32  0  0  0  0  0  0  0  0999 V2000
  -33.0510   20.4570  -15.4450 N   0  0  0  0  0  0  0  0  0  0  0  0
  -33.9950   21.3870  -14.9550 C   0  0  0  0  0  0  0  0  0  0  0  0
  -35.3070   21.2770  -15.5060 C   0  0  0  0  0  0  0  0  0  0  0  0
  -35.6750   20.3000  -16.5250 C   0  0  0  0  0  0  0  0  0  0  0  0
  -33.7090   22.4070  -13.9590 C   0  0  0  0  0  0  0  0  0  0  0  0
  -34.6530   19.3900  -16.9450 C   0  0  0  0  0  0  0  0  0  0  0  0
  -34.7540   23.2690  -13.5470 C   0  0  0  0  0  0  0  0  0  0  0  0
  -33.3530   19.5490  -16.3630 C   0  0  0  0  0  3  0  0  0  0  0  0
  -36.3240   22.1590  -15.0400 C   0  0  0  0  0  2  0  0  0  0  0  0
  -36.9430   20.1430  -17.1570 C   0  0  0  0  0  0  0  0  0  0  0  0
  -36.0570   23.1140  -14.0960 C   0  0  0  0  0  3  0  0  0  0  0  0
  -34.8700   18.3760  -17.9060 C   0  0  0  0  0  0  0  0  0  0  0  0
  -32.4530   22.6680  -13.3120 C   0  0  0  0  0  3  0  0  0  0  0  0
  -31.6580   20.4380  -14.9710 C   0  0  0  0  0  1  0  0  0  0  0  0
  -34.5850   24.3150  -12.5980 C   0  0  0  0  0  3  0  0  0  0  0  0
  -36.1320   18.3190  -18.5530 C   0  0  0  0  0  0  0  0  0  0  0  0
  -37.1470   19.1870  -18.1490 C   0  0  0  0  0  3  0  0  0  0  0  0
  -32.2710   23.6810  -12.3940 C   0  0  0  0  0  0  0  0  0  0  0  0
  -33.3550   24.5460  -12.0200 C   0  0  0  0  0  0  0  0  0  0  0  0
  -37.9500   20.9600  -16.7740 O   0  0  0  0  0  0  0  0  0  0  0  0
  -39.2900   20.4780  -16.6860 C   0  0  0  0  0  1  0  0  0  0  0  0
  -36.2240   17.3920  -19.5330 O   0  0  0  0  0  0  0  0  0  0  0  0
  -37.2000   17.6130  -20.5590 C   0  0  0  0  0  1  0  0  0  0  0  0
  -33.7740   17.6260  -18.2150 O   0  0  0  0  0  0  0  0  0  0  0  0
  -33.0400   17.9010  -19.4080 C   0  0  0  0  0  1  0  0  0  0  0  0
  -31.1020   23.9840  -11.7690 O   0  0  0  0  0  0  0  0  0  0  0  0
  -30.8760   23.6260  -10.4100 C   0  0  0  0  0  1  0  0  0  0  0  0
  -33.3710   25.5810  -11.1490 O   0  0  0  0  0  0  0  0  0  0  0  0
  -32.7640   26.8250  -11.4940 C   0  0  0  0  0  1  0  0  0  0  0  0
  1 14  1  0  0  0  0
  1  2  1  0  0  0  0
  2  5  2  0  0  0  0
  3  9  1  0  0  0  0
  3  2  1  0  0  0  0
  4  3  2  0  0  0  0
  5  7  1  0  0  0  0
  5 13  1  0  0  0  0
  6  4  1  0  0  0  0
  6  8  2  0  0  0  0
  7 15  1  0  0  0  0
  8  1  1  0  0  0  0
  9 11  1  0  0  0  0
 10 20  1  0  0  0  0
 10  4  1  0  0  0  0
 11  7  2  0  0  0  0
 12  6  1  0  0  0  0
 13 18  2  0  0  0  0
 15 19  2  0  0  0  0
 16 17  1  0  0  0  0
 16 12  2  0  0  0  0
 17 10  2  0  0  0  0
 18 19  1  0  0  0  0
 18 26  1  0  0  0  0
 19 28  1  0  0  0  0
 20 21  1  0  0  0  0
 22 16  1  0  0  0  0
 23 22  1  0  0  0  0
 24 12  1  0  0  0  0
 25 24  1  0  0  0  0
 26 27  1  0  0  0  0
 29 28  1  0  0  0  0
M  END
>  <MODEL>
5

>  <REMARK>
 VINA RESULT:    -8.005      1.618      3.986
 INTER + INTRA:         -10.638
 INTER:                 -10.551
 INTRA:                  -0.087
 UNBOUND:                -0.294
  5 active torsions:
  status: ('A' for Active; 'I' for Inactive)
    1  A    between atoms: O1_1  and  C9_15 
    2  A    between atoms: O2_2  and  C11_17 
    3  A    between atoms: O3_3  and  C15_21 
    4  A    between atoms: O4_4  and  C17_23 
    5  A    between atoms: O5_5  and  C18_24 

>  <TORSDO>
F 5

$$$$
./Sanguilutina.pdbqt
 OpenBabel10282519553D

 29 32  0  0  0  0  0  0  0  0999 V2000
  -32.2350   21.3090  -14.4380 N   0  0  0  0  0  0  0  0  0  0  0  0
  -33.5870   21.7060  -14.5360 C   0  0  0  0  0  0  0  0  0  0  0  0
  -33.9970   22.7190  -13.6190 C   0  0  0  0  0  0  0  0  0  0  0  0
  -33.1140   23.3080  -12.6190 C   0  0  0  0  0  0  0  0  0  0  0  0
  -34.5420   21.1570  -15.4860 C   0  0  0  0  0  0  0  0  0  0  0  0
  -31.7560   22.8520  -12.6100 C   0  0  0  0  0  0  0  0  0  0  0  0
  -35.8670   21.6540  -15.4850 C   0  0  0  0  0  0  0  0  0  0  0  0
  -31.4010   21.8310  -13.5480 C   0  0  0  0  0  3  0  0  0  0  0  0
  -35.3390   23.1960  -13.6760 C   0  0  0  0  0  3  0  0  0  0  0  0
  -33.4440   24.2920  -11.6420 C   0  0  0  0  0  0  0  0  0  0  0  0
  -36.2360   22.6850  -14.5750 C   0  0  0  0  0  3  0  0  0  0  0  0
  -30.7820   23.3500  -11.7130 C   0  0  0  0  0  0  0  0  0  0  0  0
  -34.3080   20.1310  -16.4660 C   0  0  0  0  0  2  0  0  0  0  0  0
  -31.6590   20.2800  -15.3180 C   0  0  0  0  0  1  0  0  0  0  0  0
  -36.8900   21.1770  -16.3520 C   0  0  0  0  0  3  0  0  0  0  0  0
  -31.1910   24.2730  -10.7160 C   0  0  0  0  0  0  0  0  0  0  0  0
  -32.5060   24.7410  -10.7160 C   0  0  0  0  0  3  0  0  0  0  0  0
  -35.2890   19.6540  -17.3100 C   0  0  0  0  0  0  0  0  0  0  0  0
  -36.6280   20.1740  -17.2590 C   0  0  0  0  0  0  0  0  0  0  0  0
  -34.7070   24.7750  -11.6290 O   0  0  0  0  0  0  0  0  0  0  0  0
  -35.7350   24.1150  -10.8920 C   0  0  0  0  0  1  0  0  0  0  0  0
  -30.2260   24.6170   -9.8350 O   0  0  0  0  0  0  0  0  0  0  0  0
  -30.0070   23.7400   -8.7220 C   0  0  0  0  0  1  0  0  0  0  0  0
  -29.5510   22.7740  -11.8190 O   0  0  0  0  0  0  0  0  0  0  0  0
  -28.4520   23.5360  -12.3180 C   0  0  0  0  0  1  0  0  0  0  0  0
  -35.1280   18.6730  -18.2370 O   0  0  0  0  0  0  0  0  0  0  0  0
  -33.8740   18.0200  -18.4110 C   0  0  0  0  0  1  0  0  0  0  0  0
  -37.7110   19.8370  -17.9960 O   0  0  0  0  0  0  0  0  0  0  0  0
  -38.7530   20.7830  -18.2250 C   0  0  0  0  0  1  0  0  0  0  0  0
  1  8  1  0  0  0  0
  2  1  1  0  0  0  0
  2  3  1  0  0  0  0
  3  4  2  0  0  0  0
  4  6  1  0  0  0  0
  4 10  1  0  0  0  0
  5  7  1  0  0  0  0
  5  2  2  0  0  0  0
  6 12  1  0  0  0  0
  7 11  1  0  0  0  0
  8  6  2  0  0  0  0
  9  3  1  0  0  0  0
 10 20  1  0  0  0  0
 10 17  2  0  0  0  0
 11  9  2  0  0  0  0
 12 16  2  0  0  0  0
 13  5  1  0  0  0  0
 14  1  1  0  0  0  0
 15  7  2  0  0  0  0
 16 22  1  0  0  0  0
 17 16  1  0  0  0  0
 18 19  2  0  0  0  0
 18 13  1  0  0  0  0
 19 15  1  0  0  0  0
 20 21  1  0  0  0  0
 22 23  1  0  0  0  0
 24 12  1  0  0  0  0
 25 24  1  0  0  0  0
 26 18  1  0  0  0  0
 27 26  1  0  0  0  0
 28 19  1  0  0  0  0
 29 28  1  0  0  0  0
M  END
>  <MODEL>
6

>  <REMARK>
 VINA RESULT:    -7.749      1.455      8.318
 INTER + INTRA:         -10.307
 INTER:                 -10.710
 INTRA:                   0.403
 UNBOUND:                -0.294
  5 active torsions:
  status: ('A' for Active; 'I' for Inactive)
    1  A    between atoms: O1_1  and  C9_15 
    2  A    between atoms: O2_2  and  C11_17 
    3  A    between atoms: O3_3  and  C15_21 
    4  A    between atoms: O4_4  and  C17_23 
    5  A    between atoms: O5_5  and  C18_24 

>  <TORSDO>
F 5

$$$$
./Sanguilutina.pdbqt
 OpenBabel10282519553D

 29 32  0  0  0  0  0  0  0  0999 V2000
  -33.0670   20.6090  -15.3040 N   0  0  0  0  0  0  0  0  0  0  0  0
  -34.1420   21.4160  -14.8690 C   0  0  0  0  0  0  0  0  0  0  0  0
  -33.8130   22.3980  -13.8870 C   0  0  0  0  0  0  0  0  0  0  0  0
  -32.4760   22.5670  -13.3310 C   0  0  0  0  0  0  0  0  0  0  0  0
  -35.5080   21.3010  -15.3520 C   0  0  0  0  0  0  0  0  0  0  0  0
  -31.4490   21.7130  -13.8480 C   0  0  0  0  0  0  0  0  0  0  0  0
  -36.4890   22.1830  -14.8380 C   0  0  0  0  0  0  0  0  0  0  0  0
  -31.8360   20.7430  -14.8280 C   0  0  0  0  0  3  0  0  0  0  0  0
  -34.8370   23.2720  -13.4200 C   0  0  0  0  0  3  0  0  0  0  0  0
  -32.0650   23.4900  -12.3250 C   0  0  0  0  0  0  0  0  0  0  0  0
  -36.1220   23.1700  -13.8810 C   0  0  0  0  0  3  0  0  0  0  0  0
  -30.1030   21.7800  -13.4210 C   0  0  0  0  0  0  0  0  0  0  0  0
  -36.0170   20.3690  -16.3210 C   0  0  0  0  0  2  0  0  0  0  0  0
  -33.2430   19.5560  -16.3170 C   0  0  0  0  0  1  0  0  0  0  0  0
  -37.8590   22.1480  -15.2200 C   0  0  0  0  0  3  0  0  0  0  0  0
  -29.7730   22.6670  -12.3640 C   0  0  0  0  0  0  0  0  0  0  0  0
  -30.7540   23.5190  -11.8550 C   0  0  0  0  0  3  0  0  0  0  0  0
  -37.3430   20.3180  -16.6980 C   0  0  0  0  0  0  0  0  0  0  0  0
  -38.3090   21.2210  -16.1350 C   0  0  0  0  0  0  0  0  0  0  0  0
  -32.9920   24.3380  -11.8240 O   0  0  0  0  0  0  0  0  0  0  0  0
  -32.6380   25.6680  -11.4440 C   0  0  0  0  0  1  0  0  0  0  0  0
  -28.4910   22.5930  -11.9430 O   0  0  0  0  0  0  0  0  0  0  0  0
  -27.5740   23.5720  -12.4490 C   0  0  0  0  0  1  0  0  0  0  0  0
  -29.2690   20.8650  -13.9910 O   0  0  0  0  0  0  0  0  0  0  0  0
  -28.4950   19.9960  -13.1640 C   0  0  0  0  0  1  0  0  0  0  0  0
  -37.8790   19.4450  -17.5920 O   0  0  0  0  0  0  0  0  0  0  0  0
  -37.2670   19.2150  -18.8570 C   0  0  0  0  0  1  0  0  0  0  0  0
  -39.6360   21.3220  -16.3760 O   0  0  0  0  0  0  0  0  0  0  0  0
  -40.5130   21.8510  -15.3840 C   0  0  0  0  0  1  0  0  0  0  0  0
  1  2  1  0  0  0  0
  1  8  1  0  0  0  0
  2  3  1  0  0  0  0
  3  9  1  0  0  0  0
  3  4  2  0  0  0  0
  4 10  1  0  0  0  0
  5  2  2  0  0  0  0
  5  7  1  0  0  0  0
  6 12  1  0  0  0  0
  6  4  1  0  0  0  0
  7 11  1  0  0  0  0
  8  6  2  0  0  0  0
 10 17  2  0  0  0  0
 10 20  1  0  0  0  0
 11  9  2  0  0  0  0
 12 16  2  0  0  0  0
 13  5  1  0  0  0  0
 14  1  1  0  0  0  0
 15  7  2  0  0  0  0
 16 22  1  0  0  0  0
 16 17  1  0  0  0  0
 18 13  1  0  0  0  0
 18 19  2  0  0  0  0
 19 15  1  0  0  0  0
 20 21  1  0  0  0  0
 23 22  1  0  0  0  0
 24 12  1  0  0  0  0
 24 25  1  0  0  0  0
 26 18  1  0  0  0  0
 27 26  1  0  0  0  0
 28 19  1  0  0  0  0
 28 29  1  0  0  0  0
M  END
>  <MODEL>
7

>  <REMARK>
 VINA RESULT:    -7.363      1.528      8.366
 INTER + INTRA:          -9.809
 INTER:                  -9.795
 INTRA:                  -0.014
 UNBOUND:                -0.294
  5 active torsions:
  status: ('A' for Active; 'I' for Inactive)
    1  A    between atoms: O1_1  and  C9_15 
    2  A    between atoms: O2_2  and  C11_17 
    3  A    between atoms: O3_3  and  C15_21 
    4  A    between atoms: O4_4  and  C17_23 
    5  A    between atoms: O5_5  and  C18_24 

>  <TORSDO>
F 5

$$$$
./Sanguilutina.pdbqt
 OpenBabel10282519553D

 29 32  0  0  0  0  0  0  0  0999 V2000
  -37.1450   20.1740  -16.4410 N   0  0  0  0  0  0  0  0  0  0  0  0
  -37.5780   21.0700  -15.4380 C   0  0  0  0  0  0  0  0  0  0  0  0
  -36.5420   21.7790  -14.7590 C   0  0  0  0  0  0  0  0  0  0  0  0
  -35.1220   21.5960  -15.0390 C   0  0  0  0  0  0  0  0  0  0  0  0
  -38.9680   21.2970  -15.0780 C   0  0  0  0  0  0  0  0  0  0  0  0
  -34.7840   20.6780  -16.0850 C   0  0  0  0  0  0  0  0  0  0  0  0
  -39.2650   22.2350  -14.0590 C   0  0  0  0  0  0  0  0  0  0  0  0
  -35.8630   19.9910  -16.7290 C   0  0  0  0  0  3  0  0  0  0  0  0
  -36.8990   22.7240  -13.7550 C   0  0  0  0  0  3  0  0  0  0  0  0
  -34.0220   22.2270  -14.3900 C   0  0  0  0  0  0  0  0  0  0  0  0
  -38.2080   22.9440  -13.4220 C   0  0  0  0  0  3  0  0  0  0  0  0
  -33.4520   20.4180  -16.4820 C   0  0  0  0  0  0  0  0  0  0  0  0
  -40.1310   20.6680  -15.6430 C   0  0  0  0  0  2  0  0  0  0  0  0
  -38.0930   19.3750  -17.2330 C   0  0  0  0  0  1  0  0  0  0  0  0
  -40.5840   22.5210  -13.6100 C   0  0  0  0  0  3  0  0  0  0  0  0
  -32.3980   21.0200  -15.7470 C   0  0  0  0  0  0  0  0  0  0  0  0
  -32.7050   21.9290  -14.7330 C   0  0  0  0  0  3  0  0  0  0  0  0
  -41.4160   20.9300  -15.2150 C   0  0  0  0  0  0  0  0  0  0  0  0
  -41.6680   21.8750  -14.1620 C   0  0  0  0  0  0  0  0  0  0  0  0
  -34.2890   23.1240  -13.4130 O   0  0  0  0  0  0  0  0  0  0  0  0
  -33.2450   23.6450  -12.5920 C   0  0  0  0  0  1  0  0  0  0  0  0
  -31.1570   20.6380  -16.1200 O   0  0  0  0  0  0  0  0  0  0  0  0
  -30.0710   20.9880  -15.2530 C   0  0  0  0  0  1  0  0  0  0  0  0
  -33.3130   19.4860  -17.4680 O   0  0  0  0  0  0  0  0  0  0  0  0
  -33.0400   19.9030  -18.8050 C   0  0  0  0  0  1  0  0  0  0  0  0
  -42.5460   20.3500  -15.6990 O   0  0  0  0  0  0  0  0  0  0  0  0
  -43.0090   19.1010  -15.1940 C   0  0  0  0  0  1  0  0  0  0  0  0
  -42.8440   22.2600  -13.6140 O   0  0  0  0  0  0  0  0  0  0  0  0
  -42.8780   23.2850  -12.6230 C   0  0  0  0  0  1  0  0  0  0  0  0
  1  2  1  0  0  0  0
  2  5  2  0  0  0  0
  2  3  1  0  0  0  0
  3  9  1  0  0  0  0
  4  3  2  0  0  0  0
  4 10  1  0  0  0  0
  5  7  1  0  0  0  0
  6  4  1  0  0  0  0
  7 15  2  0  0  0  0
  7 11  1  0  0  0  0
  8  1  1  0  0  0  0
  8  6  2  0  0  0  0
  9 11  2  0  0  0  0
 10 20  1  0  0  0  0
 12  6  1  0  0  0  0
 12 16  2  0  0  0  0
 13 18  1  0  0  0  0
 13  5  1  0  0  0  0
 14  1  1  0  0  0  0
 16 17  1  0  0  0  0
 17 10  2  0  0  0  0
 18 19  2  0  0  0  0
 19 28  1  0  0  0  0
 19 15  1  0  0  0  0
 20 21  1  0  0  0  0
 22 16  1  0  0  0  0
 22 23  1  0  0  0  0
 24 12  1  0  0  0  0
 25 24  1  0  0  0  0
 26 18  1  0  0  0  0
 26 27  1  0  0  0  0
 28 29  1  0  0  0  0
M  END
>  <MODEL>
8

>  <REMARK>
 VINA RESULT:    -7.265      2.815      8.067
 INTER + INTRA:          -9.682
 INTER:                  -9.375
 INTRA:                  -0.306
 UNBOUND:                -0.294
  5 active torsions:
  status: ('A' for Active; 'I' for Inactive)
    1  A    between atoms: O1_1  and  C9_15 
    2  A    between atoms: O2_2  and  C11_17 
    3  A    between atoms: O3_3  and  C15_21 
    4  A    between atoms: O4_4  and  C17_23 
    5  A    between atoms: O5_5  and  C18_24 

>  <TORSDO>
F 5

$$$$
./Sanguilutina.pdbqt
 OpenBabel10282519553D

 29 32  0  0  0  0  0  0  0  0999 V2000
  -33.8870   19.7450  -16.2440 N   0  0  0  0  0  0  0  0  0  0  0  0
  -35.1260   20.4210  -16.2050 C   0  0  0  0  0  0  0  0  0  0  0  0
  -35.1950   21.5250  -15.3030 C   0  0  0  0  0  0  0  0  0  0  0  0
  -34.0880   21.9370  -14.4470 C   0  0  0  0  0  0  0  0  0  0  0  0
  -36.2870   20.0640  -17.0040 C   0  0  0  0  0  0  0  0  0  0  0  0
  -32.8670   21.2000  -14.5720 C   0  0  0  0  0  0  0  0  0  0  0  0
  -37.4680   20.8350  -16.8750 C   0  0  0  0  0  0  0  0  0  0  0  0
  -32.8560   20.1000  -15.4880 C   0  0  0  0  0  3  0  0  0  0  0  0
  -36.4020   22.2770  -15.2280 C   0  0  0  0  0  3  0  0  0  0  0  0
  -34.0780   22.9970  -13.4940 C   0  0  0  0  0  0  0  0  0  0  0  0
  -37.4930   21.9460  -15.9870 C   0  0  0  0  0  3  0  0  0  0  0  0
  -31.7050   21.5020  -13.8250 C   0  0  0  0  0  0  0  0  0  0  0  0
  -36.4000   18.9840  -17.9470 C   0  0  0  0  0  2  0  0  0  0  0  0
  -33.6560   18.5910  -17.1270 C   0  0  0  0  0  1  0  0  0  0  0  0
  -38.6680   20.5640  -17.5890 C   0  0  0  0  0  3  0  0  0  0  0  0
  -31.7810   22.5190  -12.8380 C   0  0  0  0  0  0  0  0  0  0  0  0
  -32.9570   23.2590  -12.7100 C   0  0  0  0  0  3  0  0  0  0  0  0
  -37.5580   18.7050  -18.6420 C   0  0  0  0  0  0  0  0  0  0  0  0
  -38.7400   19.5030  -18.4640 C   0  0  0  0  0  0  0  0  0  0  0  0
  -35.1990   23.7410  -13.3590 O   0  0  0  0  0  0  0  0  0  0  0  0
  -35.6600   24.1430  -12.0690 C   0  0  0  0  0  1  0  0  0  0  0  0
  -30.6620   22.6720  -12.0960 O   0  0  0  0  0  0  0  0  0  0  0  0
  -30.5660   23.8500  -11.2840 C   0  0  0  0  0  1  0  0  0  0  0  0
  -30.6460   20.6710  -14.0420 O   0  0  0  0  0  0  0  0  0  0  0  0
  -29.6730   21.0060  -15.0310 C   0  0  0  0  0  1  0  0  0  0  0  0
  -37.7250   17.6870  -19.5270 O   0  0  0  0  0  0  0  0  0  0  0  0
  -36.7650   17.4310  -20.5480 C   0  0  0  0  0  1  0  0  0  0  0  0
  -39.9540   19.3860  -19.0500 O   0  0  0  0  0  0  0  0  0  0  0  0
  -40.3350   20.2670  -20.1050 C   0  0  0  0  0  1  0  0  0  0  0  0
  1  2  1  0  0  0  0
  1  8  1  0  0  0  0
  2  3  1  0  0  0  0
  3  9  1  0  0  0  0
  3  4  2  0  0  0  0
  4 10  1  0  0  0  0
  5  7  1  0  0  0  0
  5  2  2  0  0  0  0
  6  4  1  0  0  0  0
  6 12  1  0  0  0  0
  7 11  1  0  0  0  0
  8  6  2  0  0  0  0
 10 20  1  0  0  0  0
 10 17  2  0  0  0  0
 11  9  2  0  0  0  0
 12 16  2  0  0  0  0
 13  5  1  0  0  0  0
 14  1  1  0  0  0  0
 15  7  2  0  0  0  0
 16 17  1  0  0  0  0
 16 22  1  0  0  0  0
 18 19  2  0  0  0  0
 18 13  1  0  0  0  0
 19 15  1  0  0  0  0
 20 21  1  0  0  0  0
 22 23  1  0  0  0  0
 24 12  1  0  0  0  0
 25 24  1  0  0  0  0
 26 18  1  0  0  0  0
 27 26  1  0  0  0  0
 28 19  1  0  0  0  0
 29 28  1  0  0  0  0
M  END
>  <MODEL>
9

>  <REMARK>
 VINA RESULT:    -7.201      1.961      8.507
 INTER + INTRA:          -9.600
 INTER:                  -9.348
 INTRA:                  -0.252
 UNBOUND:                -0.294
  5 active torsions:
  status: ('A' for Active; 'I' for Inactive)
    1  A    between atoms: O1_1  and  C9_15 
    2  A    between atoms: O2_2  and  C11_17 
    3  A    between atoms: O3_3  and  C15_21 
    4  A    between atoms: O4_4  and  C17_23 
    5  A    between atoms: O5_5  and  C18_24 

>  <TORSDO>
F 5

$$$$
./Sanguilutina.pdbqt
 OpenBabel10282519553D

 29 32  0  0  0  0  0  0  0  0999 V2000
  -41.7620   27.1020    3.5520 N   0  0  0  0  0  0  0  0  0  0  0  0
  -42.5520   26.7630    2.4310 C   0  0  0  0  0  0  0  0  0  0  0  0
  -42.9070   27.8520    1.5790 C   0  0  0  0  0  0  0  0  0  0  0  0
  -42.5180   29.2340    1.8330 C   0  0  0  0  0  0  0  0  0  0  0  0
  -43.0030   25.4180    2.1160 C   0  0  0  0  0  0  0  0  0  0  0  0
  -41.7030   29.4740    2.9850 C   0  0  0  0  0  0  0  0  0  0  0  0
  -43.7830   25.2150    0.9510 C   0  0  0  0  0  0  0  0  0  0  0  0
  -41.3810   28.3470    3.8070 C   0  0  0  0  0  3  0  0  0  0  0  0
  -43.6770   27.5870    0.4110 C   0  0  0  0  0  2  0  0  0  0  0  0
  -42.8560   30.3850    1.0630 C   0  0  0  0  0  0  0  0  0  0  0  0
  -44.0950   26.3190    0.1080 C   0  0  0  0  0  3  0  0  0  0  0  0
  -41.2310   30.7590    3.3420 C   0  0  0  0  0  0  0  0  0  0  0  0
  -42.7530   24.2150    2.8620 C   0  0  0  0  0  3  0  0  0  0  0  0
  -41.3100   26.0910    4.5210 C   0  0  0  0  0  1  0  0  0  0  0  0
  -44.2970   23.9490    0.5560 C   0  0  0  0  0  3  0  0  0  0  0  0
  -41.6640   31.8730    2.5780 C   0  0  0  0  0  0  0  0  0  0  0  0
  -42.4470   31.6610    1.4430 C   0  0  0  0  0  3  0  0  0  0  0  0
  -43.2480   22.9800    2.4950 C   0  0  0  0  0  0  0  0  0  0  0  0
  -44.0540   22.8250    1.3160 C   0  0  0  0  0  0  0  0  0  0  0  0
  -43.6020   30.2070   -0.0520 O   0  0  0  0  0  0  0  0  0  0  0  0
  -44.1070   31.3260   -0.7800 C   0  0  0  0  0  1  0  0  0  0  0  0
  -41.2560   33.0730    3.0470 O   0  0  0  0  0  0  0  0  0  0  0  0
  -40.3080   33.8020    2.2570 C   0  0  0  0  0  1  0  0  0  0  0  0
  -40.5000   30.8080    4.4920 O   0  0  0  0  0  0  0  0  0  0  0  0
  -39.0870   31.0000    4.4270 C   0  0  0  0  0  1  0  0  0  0  0  0
  -43.0600   21.8180    3.1750 O   0  0  0  0  0  0  0  0  0  0  0  0
  -43.8770   21.4730    4.2890 C   0  0  0  0  0  1  0  0  0  0  0  0
  -44.6220   21.7110    0.8010 O   0  0  0  0  0  0  0  0  0  0  0  0
  -45.0120   21.6650   -0.5700 C   0  0  0  0  0  1  0  0  0  0  0  0
  1  8  1  0  0  0  0
  1 14  1  0  0  0  0
  2  1  1  0  0  0  0
  3  4  2  0  0  0  0
  3  2  1  0  0  0  0
  4  6  1  0  0  0  0
  5  2  2  0  0  0  0
  5 13  1  0  0  0  0
  6 12  1  0  0  0  0
  6  8  2  0  0  0  0
  7  5  1  0  0  0  0
  9  3  1  0  0  0  0
 10 17  2  0  0  0  0
 10  4  1  0  0  0  0
 11  9  1  0  0  0  0
 11  7  2  0  0  0  0
 12 24  1  0  0  0  0
 15  7  1  0  0  0  0
 15 19  2  0  0  0  0
 16 22  1  0  0  0  0
 16 12  2  0  0  0  0
 17 16  1  0  0  0  0
 18 13  2  0  0  0  0
 18 26  1  0  0  0  0
 19 18  1  0  0  0  0
 20 10  1  0  0  0  0
 21 20  1  0  0  0  0
 23 22  1  0  0  0  0
 25 24  1  0  0  0  0
 26 27  1  0  0  0  0
 28 19  1  0  0  0  0
 29 28  1  0  0  0  0
M  END
>  <MODEL>
10

>  <REMARK>
 VINA RESULT:    -7.005     18.490     21.005
 INTER + INTRA:          -9.346
 INTER:                  -8.990
 INTRA:                  -0.356
 UNBOUND:                -0.294
  5 active torsions:
  status: ('A' for Active; 'I' for Inactive)
    1  A    between atoms: O1_1  and  C9_15 
    2  A    between atoms: O2_2  and  C11_17 
    3  A    between atoms: O3_3  and  C15_21 
    4  A    between atoms: O4_4  and  C17_23 
    5  A    between atoms: O5_5  and  C18_24 

>  <TORSDO>
F 5

$$$$
./Sanguilutina.pdbqt
 OpenBabel10282519553D

 29 32  0  0  0  0  0  0  0  0999 V2000
  -36.6980   20.9020  -16.4850 N   0  0  0  0  0  0  0  0  0  0  0  0
  -35.6880   20.0090  -16.9090 C   0  0  0  0  0  0  0  0  0  0  0  0
  -34.4280   20.1530  -16.2560 C   0  0  0  0  0  0  0  0  0  0  0  0
  -34.1590   21.1590  -15.2340 C   0  0  0  0  0  0  0  0  0  0  0  0
  -35.8620   18.9940  -17.9350 C   0  0  0  0  0  0  0  0  0  0  0  0
  -35.2510   22.0060  -14.8600 C   0  0  0  0  0  0  0  0  0  0  0  0
  -34.7670   18.1550  -18.2570 C   0  0  0  0  0  0  0  0  0  0  0  0
  -36.4910   21.8210  -15.5520 C   0  0  0  0  0  3  0  0  0  0  0  0
  -33.3670   19.2690  -16.6060 C   0  0  0  0  0  3  0  0  0  0  0  0
  -32.9280   21.4000  -14.5580 C   0  0  0  0  0  0  0  0  0  0  0  0
  -33.5330   18.3070  -17.5660 C   0  0  0  0  0  3  0  0  0  0  0  0
  -35.1450   23.0080  -13.8680 C   0  0  0  0  0  0  0  0  0  0  0  0
  -37.0470   18.7180  -18.7000 C   0  0  0  0  0  2  0  0  0  0  0  0
  -38.0530   20.8750  -17.0590 C   0  0  0  0  0  1  0  0  0  0  0  0
  -34.8150   17.1440  -19.2570 C   0  0  0  0  0  3  0  0  0  0  0  0
  -33.8740   23.2490  -13.2850 C   0  0  0  0  0  0  0  0  0  0  0  0
  -32.8000   22.4260  -13.6250 C   0  0  0  0  0  3  0  0  0  0  0  0
  -37.1090   17.7460  -19.6770 C   0  0  0  0  0  0  0  0  0  0  0  0
  -35.9660   16.9310  -19.9840 C   0  0  0  0  0  0  0  0  0  0  0  0
  -31.8730   20.6080  -14.8560 O   0  0  0  0  0  0  0  0  0  0  0  0
  -30.5360   21.0720  -14.6780 C   0  0  0  0  0  1  0  0  0  0  0  0
  -33.8340   24.2920  -12.4270 O   0  0  0  0  0  0  0  0  0  0  0  0
  -32.6700   24.4210  -11.6000 C   0  0  0  0  0  1  0  0  0  0  0  0
  -36.2730   23.7470  -13.6680 O   0  0  0  0  0  0  0  0  0  0  0  0
  -37.1670   23.4060  -12.6080 C   0  0  0  0  0  1  0  0  0  0  0  0
  -38.1960   17.4590  -20.4420 O   0  0  0  0  0  0  0  0  0  0  0  0
  -38.6150   18.3310  -21.4860 C   0  0  0  0  0  1  0  0  0  0  0  0
  -35.8350   15.9410  -20.8960 O   0  0  0  0  0  0  0  0  0  0  0  0
  -35.2870   16.2120  -22.1850 C   0  0  0  0  0  1  0  0  0  0  0  0
  1  8  1  0  0  0  0
  2  1  1  0  0  0  0
  2  3  1  0  0  0  0
  3  4  2  0  0  0  0
  4  6  1  0  0  0  0
  4 10  1  0  0  0  0
  5  2  2  0  0  0  0
  6 12  1  0  0  0  0
  7  5  1  0  0  0  0
  7 11  1  0  0  0  0
  8  6  2  0  0  0  0
  9  3  1  0  0  0  0
 10 17  2  0  0  0  0
 11  9  2  0  0  0  0
 12 24  1  0  0  0  0
 12 16  2  0  0  0  0
 13  5  1  0  0  0  0
 14  1  1  0  0  0  0
 15  7  2  0  0  0  0
 16 22  1  0  0  0  0
 17 16  1  0  0  0  0
 18 13  1  0  0  0  0
 19 18  2  0  0  0  0
 19 15  1  0  0  0  0
 20 21  1  0  0  0  0
 20 10  1  0  0  0  0
 22 23  1  0  0  0  0
 24 25  1  0  0  0  0
 26 18  1  0  0  0  0
 27 26  1  0  0  0  0
 28 19  1  0  0  0  0
 29 28  1  0  0  0  0
M  END
>  <MODEL>
11

>  <REMARK>
 VINA RESULT:    -6.914      2.393      7.791
 INTER + INTRA:          -9.228
 INTER:                  -8.900
 INTRA:                  -0.328
 UNBOUND:                -0.294
  5 active torsions:
  status: ('A' for Active; 'I' for Inactive)
    1  A    between atoms: O1_1  and  C9_15 
    2  A    between atoms: O2_2  and  C11_17 
    3  A    between atoms: O3_3  and  C15_21 
    4  A    between atoms: O4_4  and  C17_23 
    5  A    between atoms: O5_5  and  C18_24 

>  <TORSDO>
F 5

$$$$
./Sanguilutina.pdbqt
 OpenBabel10282519553D

 29 32  0  0  0  0  0  0  0  0999 V2000
  -43.2660   26.9780    0.3010 N   0  0  0  0  0  0  0  0  0  0  0  0
  -43.5080   27.3480   -1.0400 C   0  0  0  0  0  0  0  0  0  0  0  0
  -43.7260   28.7410   -1.2620 C   0  0  0  0  0  0  0  0  0  0  0  0
  -43.7320   29.7360   -0.1960 C   0  0  0  0  0  0  0  0  0  0  0  0
  -43.5440   26.4210   -2.1590 C   0  0  0  0  0  0  0  0  0  0  0  0
  -43.4600   29.2650    1.1280 C   0  0  0  0  0  0  0  0  0  0  0  0
  -43.7870   26.9290   -3.4590 C   0  0  0  0  0  0  0  0  0  0  0  0
  -43.2530   27.8580    1.2940 C   0  0  0  0  0  3  0  0  0  0  0  0
  -43.9470   29.1990   -2.5930 C   0  0  0  0  0  2  0  0  0  0  0  0
  -43.9770   31.1350   -0.3170 C   0  0  0  0  0  0  0  0  0  0  0  0
  -43.9730   28.3270   -3.6480 C   0  0  0  0  0  3  0  0  0  0  0  0
  -43.4080   30.1180    2.2550 C   0  0  0  0  0  0  0  0  0  0  0  0
  -43.3600   24.9960   -2.1200 C   0  0  0  0  0  3  0  0  0  0  0  0
  -43.0170   25.5800    0.6910 C   0  0  0  0  0  1  0  0  0  0  0  0
  -43.8660   26.1140   -4.6220 C   0  0  0  0  0  3  0  0  0  0  0  0
  -43.7360   31.4870    2.0810 C   0  0  0  0  0  0  0  0  0  0  0  0
  -43.9900   31.9710    0.7970 C   0  0  0  0  0  3  0  0  0  0  0  0
  -43.4380   24.1910   -3.2370 C   0  0  0  0  0  0  0  0  0  0  0  0
  -43.7080   24.7480   -4.5340 C   0  0  0  0  0  0  0  0  0  0  0  0
  -44.2120   31.6350   -1.5520 O   0  0  0  0  0  0  0  0  0  0  0  0
  -44.0340   33.0240   -1.8250 C   0  0  0  0  0  1  0  0  0  0  0  0
  -43.7680   32.2110    3.2220 O   0  0  0  0  0  0  0  0  0  0  0  0
  -42.6380   33.0470    3.5040 C   0  0  0  0  0  1  0  0  0  0  0  0
  -43.1760   29.4920    3.4440 O   0  0  0  0  0  0  0  0  0  0  0  0
  -41.8530   29.4550    3.9800 C   0  0  0  0  0  1  0  0  0  0  0  0
  -43.2940   22.8400   -3.2520 O   0  0  0  0  0  0  0  0  0  0  0  0
  -42.1710   22.2110   -2.6420 C   0  0  0  0  0  1  0  0  0  0  0  0
  -43.8210   24.1290   -5.7310 O   0  0  0  0  0  0  0  0  0  0  0  0
  -43.5460   24.8340   -6.9390 C   0  0  0  0  0  1  0  0  0  0  0  0
  1 14  1  0  0  0  0
  1  8  1  0  0  0  0
  2  1  1  0  0  0  0
  3  2  1  0  0  0  0
  3  4  2  0  0  0  0
  4  6  1  0  0  0  0
  5 13  1  0  0  0  0
  5  2  2  0  0  0  0
  6  8  2  0  0  0  0
  6 12  1  0  0  0  0
  7  5  1  0  0  0  0
  9  3  1  0  0  0  0
 10  4  1  0  0  0  0
 10 17  2  0  0  0  0
 11  7  2  0  0  0  0
 11  9  1  0  0  0  0
 12 24  1  0  0  0  0
 15 19  2  0  0  0  0
 15  7  1  0  0  0  0
 16 12  2  0  0  0  0
 16 22  1  0  0  0  0
 17 16  1  0  0  0  0
 18 13  2  0  0  0  0
 19 18  1  0  0  0  0
 20 10  1  0  0  0  0
 21 20  1  0  0  0  0
 22 23  1  0  0  0  0
 24 25  1  0  0  0  0
 26 18  1  0  0  0  0
 26 27  1  0  0  0  0
 28 19  1  0  0  0  0
 29 28  1  0  0  0  0
M  END
>  <MODEL>
12

>  <REMARK>
 VINA RESULT:    -6.751     15.382     19.293
 INTER + INTRA:          -9.018
 INTER:                  -8.691
 INTRA:                  -0.327
 UNBOUND:                -0.294
  5 active torsions:
  status: ('A' for Active; 'I' for Inactive)
    1  A    between atoms: O1_1  and  C9_15 
    2  A    between atoms: O2_2  and  C11_17 
    3  A    between atoms: O3_3  and  C15_21 
    4  A    between atoms: O4_4  and  C17_23 
    5  A    between atoms: O5_5  and  C18_24 

>  <TORSDO>
F 5

$$$$
./Sanguilutina.pdbqt
 OpenBabel10282519553D

 29 32  0  0  0  0  0  0  0  0999 V2000
  -43.6180   26.7290    1.0330 N   0  0  0  0  0  0  0  0  0  0  0  0
  -43.6130   27.8470    0.1700 C   0  0  0  0  0  0  0  0  0  0  0  0
  -43.4790   27.5500   -1.2190 C   0  0  0  0  0  0  0  0  0  0  0  0
  -43.3300   26.1970   -1.7440 C   0  0  0  0  0  0  0  0  0  0  0  0
  -43.7320   29.2290    0.6080 C   0  0  0  0  0  0  0  0  0  0  0  0
  -43.3640   25.1280   -0.7910 C   0  0  0  0  0  0  0  0  0  0  0  0
  -43.7230   30.2560   -0.3660 C   0  0  0  0  0  0  0  0  0  0  0  0
  -43.4950   25.4850    0.5900 C   0  0  0  0  0  3  0  0  0  0  0  0
  -43.4960   28.6220   -2.1570 C   0  0  0  0  0  2  0  0  0  0  0  0
  -43.1530   25.8090   -3.1040 C   0  0  0  0  0  0  0  0  0  0  0  0
  -43.6170   29.9220   -1.7460 C   0  0  0  0  0  3  0  0  0  0  0  0
  -43.2570   23.7660   -1.1560 C   0  0  0  0  0  0  0  0  0  0  0  0
  -43.8610   29.7100    1.9560 C   0  0  0  0  0  3  0  0  0  0  0  0
  -43.7540   26.8710    2.4910 C   0  0  0  0  0  1  0  0  0  0  0  0
  -43.8110   31.6410   -0.0530 C   0  0  0  0  0  3  0  0  0  0  0  0
  -43.0070   23.4490   -2.5160 C   0  0  0  0  0  0  0  0  0  0  0  0
  -42.9840   24.4740   -3.4630 C   0  0  0  0  0  3  0  0  0  0  0  0
  -43.9420   31.0490    2.2770 C   0  0  0  0  0  0  0  0  0  0  0  0
  -43.9080   32.0590    1.2560 C   0  0  0  0  0  0  0  0  0  0  0  0
  -43.1420   26.7790   -4.0450 O   0  0  0  0  0  0  0  0  0  0  0  0
  -43.8450   26.6130   -5.2760 C   0  0  0  0  0  1  0  0  0  0  0  0
  -42.8100   22.1350   -2.7640 O   0  0  0  0  0  0  0  0  0  0  0  0
  -41.4570   21.6640   -2.7810 C   0  0  0  0  0  1  0  0  0  0  0  0
  -43.2690   22.8860   -0.1150 O   0  0  0  0  0  0  0  0  0  0  0  0
  -44.4630   22.1650    0.1900 C   0  0  0  0  0  1  0  0  0  0  0  0
  -44.0430   31.5570    3.5340 O   0  0  0  0  0  0  0  0  0  0  0  0
  -42.8910   31.7450    4.3500 C   0  0  0  0  0  1  0  0  0  0  0  0
  -43.9740   33.4050    1.3740 O   0  0  0  0  0  0  0  0  0  0  0  0
  -42.7830   34.1800    1.4860 C   0  0  0  0  0  1  0  0  0  0  0  0
  1 14  1  0  0  0  0
  2  5  2  0  0  0  0
  2  1  1  0  0  0  0
  3  2  1  0  0  0  0
  4  3  2  0  0  0  0
  4  6  1  0  0  0  0
  5 13  1  0  0  0  0
  6  8  2  0  0  0  0
  7 15  1  0  0  0  0
  7  5  1  0  0  0  0
  8  1  1  0  0  0  0
  9 11  1  0  0  0  0
  9  3  1  0  0  0  0
 10  4  1  0  0  0  0
 11  7  2  0  0  0  0
 12  6  1  0  0  0  0
 12 24  1  0  0  0  0
 13 18  2  0  0  0  0
 15 19  2  0  0  0  0
 16 12  2  0  0  0  0
 17 10  2  0  0  0  0
 17 16  1  0  0  0  0
 18 26  1  0  0  0  0
 19 28  1  0  0  0  0
 19 18  1  0  0  0  0
 20 10  1  0  0  0  0
 21 20  1  0  0  0  0
 22 16  1  0  0  0  0
 23 22  1  0  0  0  0
 24 25  1  0  0  0  0
 26 27  1  0  0  0  0
 28 29  1  0  0  0  0
M  END
>  <MODEL>
13

>  <REMARK>
 VINA RESULT:    -6.732     15.701     18.582
 INTER + INTRA:          -8.994
 INTER:                  -8.623
 INTRA:                  -0.371
 UNBOUND:                -0.294
  5 active torsions:
  status: ('A' for Active; 'I' for Inactive)
    1  A    between atoms: O1_1  and  C9_15 
    2  A    between atoms: O2_2  and  C11_17 
    3  A    between atoms: O3_3  and  C15_21 
    4  A    between atoms: O4_4  and  C17_23 
    5  A    between atoms: O5_5  and  C18_24 

>  <TORSDO>
F 5

$$$$
./Sanguilutina.pdbqt
 OpenBabel10282519553D

 29 32  0  0  0  0  0  0  0  0999 V2000
  -31.9170   45.9850   -4.4630 N   0  0  0  0  0  0  0  0  0  0  0  0
  -33.1520   46.3740   -5.0270 C   0  0  0  0  0  0  0  0  0  0  0  0
  -34.2510   46.4280   -4.1180 C   0  0  0  0  0  0  0  0  0  0  0  0
  -34.1450   46.0880   -2.7030 C   0  0  0  0  0  0  0  0  0  0  0  0
  -33.3520   46.7080   -6.4270 C   0  0  0  0  0  0  0  0  0  0  0  0
  -32.8470   45.7220   -2.2230 C   0  0  0  0  0  0  0  0  0  0  0  0
  -34.6440   47.0940   -6.8590 C   0  0  0  0  0  0  0  0  0  0  0  0
  -31.7820   45.6790   -3.1800 C   0  0  0  0  0  3  0  0  0  0  0  0
  -35.5250   46.8420   -4.6030 C   0  0  0  0  0  3  0  0  0  0  0  0
  -35.1900   46.0760   -1.7340 C   0  0  0  0  0  0  0  0  0  0  0  0
  -35.7120   47.1640   -5.9200 C   0  0  0  0  0  3  0  0  0  0  0  0
  -32.5890   45.3900   -0.8730 C   0  0  0  0  0  0  0  0  0  0  0  0
  -32.3710   46.6960   -7.4780 C   0  0  0  0  0  2  0  0  0  0  0  0
  -30.6890   45.8880   -5.2690 C   0  0  0  0  0  1  0  0  0  0  0  0
  -34.9620   47.4210   -8.2070 C   0  0  0  0  0  3  0  0  0  0  0  0
  -33.6850   45.3240    0.0270 C   0  0  0  0  0  0  0  0  0  0  0  0
  -34.9560   45.6900   -0.4170 C   0  0  0  0  0  3  0  0  0  0  0  0
  -32.6620   47.0040   -8.7900 C   0  0  0  0  0  0  0  0  0  0  0  0
  -33.9940   47.3710   -9.1860 C   0  0  0  0  0  0  0  0  0  0  0  0
  -36.4300   46.4410   -2.1320 O   0  0  0  0  0  0  0  0  0  0  0  0
  -37.1580   47.4470   -1.4280 C   0  0  0  0  0  1  0  0  0  0  0  0
  -33.3700   44.8960    1.2700 O   0  0  0  0  0  0  0  0  0  0  0  0
  -32.9540   45.8850    2.2210 C   0  0  0  0  0  1  0  0  0  0  0  0
  -31.3030   45.0280   -0.6010 O   0  0  0  0  0  0  0  0  0  0  0  0
  -30.3760   46.0050   -0.1290 C   0  0  0  0  0  1  0  0  0  0  0  0
  -31.7790   46.9880   -9.8230 O   0  0  0  0  0  0  0  0  0  0  0  0
  -30.3840   47.1720   -9.6040 C   0  0  0  0  0  1  0  0  0  0  0  0
  -34.4680   47.7030  -10.4090 O   0  0  0  0  0  0  0  0  0  0  0  0
  -35.5890   47.0160  -10.9610 C   0  0  0  0  0  1  0  0  0  0  0  0
  1  8  1  0  0  0  0
  2  1  1  0  0  0  0
  2  3  1  0  0  0  0
  3  4  2  0  0  0  0
  4  6  1  0  0  0  0
  4 10  1  0  0  0  0
  5  2  2  0  0  0  0
  6 12  1  0  0  0  0
  7  5  1  0  0  0  0
  7 11  1  0  0  0  0
  8  6  2  0  0  0  0
  9  3  1  0  0  0  0
 10 17  2  0  0  0  0
 11  9  2  0  0  0  0
 12 24  1  0  0  0  0
 12 16  2  0  0  0  0
 13  5  1  0  0  0  0
 14  1  1  0  0  0  0
 15  7  2  0  0  0  0
 16 22  1  0  0  0  0
 17 16  1  0  0  0  0
 18 13  1  0  0  0  0
 19 18  2  0  0  0  0
 19 15  1  0  0  0  0
 20 10  1  0  0  0  0
 20 21  1  0  0  0  0
 22 23  1  0  0  0  0
 24 25  1  0  0  0  0
 26 27  1  0  0  0  0
 26 18  1  0  0  0  0
 28 19  1  0  0  0  0
 29 28  1  0  0  0  0
M  END
>  <MODEL>
14

>  <REMARK>
 VINA RESULT:    -6.722     25.941     27.779
 INTER + INTRA:          -8.980
 INTER:                  -8.819
 INTRA:                  -0.161
 UNBOUND:                -0.294
  5 active torsions:
  status: ('A' for Active; 'I' for Inactive)
    1  A    between atoms: O1_1  and  C9_15 
    2  A    between atoms: O2_2  and  C11_17 
    3  A    between atoms: O3_3  and  C15_21 
    4  A    between atoms: O4_4  and  C17_23 
    5  A    between atoms: O5_5  and  C18_24 

>  <TORSDO>
F 5

$$$$
./Sanguilutina.pdbqt
 OpenBabel10282519553D

 29 32  0  0  0  0  0  0  0  0999 V2000
   -3.3210   36.9920    7.5980 N   0  0  0  0  0  0  0  0  0  0  0  0
   -4.4090   36.3400    8.2200 C   0  0  0  0  0  0  0  0  0  0  0  0
   -4.3390   34.9150    8.2430 C   0  0  0  0  0  0  0  0  0  0  0  0
   -3.2450   34.1520    7.6520 C   0  0  0  0  0  0  0  0  0  0  0  0
   -5.5500   37.0200    8.8120 C   0  0  0  0  0  0  0  0  0  0  0  0
   -2.1800   34.9030    7.0600 C   0  0  0  0  0  0  0  0  0  0  0  0
   -6.5690   36.2440    9.4150 C   0  0  0  0  0  0  0  0  0  0  0  0
   -2.3050   36.3300    7.0600 C   0  0  0  0  0  3  0  0  0  0  0  0
   -5.3840   34.1850    8.8790 C   0  0  0  0  0  3  0  0  0  0  0  0
   -3.1100   32.7340    7.5930 C   0  0  0  0  0  0  0  0  0  0  0  0
   -6.4540   34.8260    9.4450 C   0  0  0  0  0  3  0  0  0  0  0  0
   -1.0450   34.3000    6.4710 C   0  0  0  0  0  0  0  0  0  0  0  0
   -5.7900   38.4360    8.8690 C   0  0  0  0  0  2  0  0  0  0  0  0
   -3.2440   38.4580    7.5000 C   0  0  0  0  0  1  0  0  0  0  0  0
   -7.7390   36.7980   10.0050 C   0  0  0  0  0  3  0  0  0  0  0  0
   -1.0050   32.8840    6.3780 C   0  0  0  0  0  0  0  0  0  0  0  0
   -2.0260   32.1320    6.9610 C   0  0  0  0  0  3  0  0  0  0  0  0
   -6.9210   38.9900    9.4320 C   0  0  0  0  0  0  0  0  0  0  0  0
   -7.9410   38.1610   10.0140 C   0  0  0  0  0  0  0  0  0  0  0  0
   -4.0770   31.9790    8.1640 O   0  0  0  0  0  0  0  0  0  0  0  0
   -4.2450   30.6090    7.8020 C   0  0  0  0  0  1  0  0  0  0  0  0
    0.0600   32.3920    5.7080 O   0  0  0  0  0  0  0  0  0  0  0  0
    0.2520   30.9710    5.7290 C   0  0  0  0  0  1  0  0  0  0  0  0
   -0.1480   35.1670    5.9210 O   0  0  0  0  0  0  0  0  0  0  0  0
   -0.1730   35.4160    4.5160 C   0  0  0  0  0  1  0  0  0  0  0  0
   -7.2070   40.3180    9.4920 O   0  0  0  0  0  0  0  0  0  0  0  0
   -7.6260   41.0360    8.3370 C   0  0  0  0  0  1  0  0  0  0  0  0
   -9.1050   38.5160   10.6060 O   0  0  0  0  0  0  0  0  0  0  0  0
   -9.3080   38.2830   11.9980 C   0  0  0  0  0  1  0  0  0  0  0  0
  1  2  1  0  0  0  0
  2  3  1  0  0  0  0
  2  5  2  0  0  0  0
  3  9  1  0  0  0  0
  4  3  2  0  0  0  0
  5 13  1  0  0  0  0
  5  7  1  0  0  0  0
  6  8  2  0  0  0  0
  6  4  1  0  0  0  0
  7 11  1  0  0  0  0
  7 15  2  0  0  0  0
  8  1  1  0  0  0  0
  9 11  2  0  0  0  0
 10  4  1  0  0  0  0
 10 20  1  0  0  0  0
 12  6  1  0  0  0  0
 13 18  1  0  0  0  0
 14  1  1  0  0  0  0
 15 19  1  0  0  0  0
 16 12  2  0  0  0  0
 16 17  1  0  0  0  0
 17 10  2  0  0  0  0
 18 26  1  0  0  0  0
 18 19  2  0  0  0  0
 19 28  1  0  0  0  0
 21 20  1  0  0  0  0
 22 23  1  0  0  0  0
 22 16  1  0  0  0  0
 24 12  1  0  0  0  0
 25 24  1  0  0  0  0
 27 26  1  0  0  0  0
 28 29  1  0  0  0  0
M  END
>  <MODEL>
15

>  <REMARK>
 VINA RESULT:    -6.566     38.999     40.631
 INTER + INTRA:          -8.778
 INTER:                  -8.553
 INTRA:                  -0.226
 UNBOUND:                -0.294
  5 active torsions:
  status: ('A' for Active; 'I' for Inactive)
    1  A    between atoms: O1_1  and  C9_15 
    2  A    between atoms: O2_2  and  C11_17 
    3  A    between atoms: O3_3  and  C15_21 
    4  A    between atoms: O4_4  and  C17_23 
    5  A    between atoms: O5_5  and  C18_24 

>  <TORSDO>
F 5

$$$$
./Sanguilutina.pdbqt
 OpenBabel10282519553D

 29 32  0  0  0  0  0  0  0  0999 V2000
  -44.2600   27.2090    0.8410 N   0  0  0  0  0  0  0  0  0  0  0  0
  -43.2670   27.8680    1.5990 C   0  0  0  0  0  0  0  0  0  0  0  0
  -42.6010   27.0610    2.5700 C   0  0  0  0  0  0  0  0  0  0  0  0
  -42.9160   25.6560    2.8050 C   0  0  0  0  0  0  0  0  0  0  0  0
  -42.9060   29.2680    1.4470 C   0  0  0  0  0  0  0  0  0  0  0  0
  -43.9260   25.0740    1.9740 C   0  0  0  0  0  0  0  0  0  0  0  0
  -41.8820   29.8000    2.2680 C   0  0  0  0  0  0  0  0  0  0  0  0
  -44.5650   25.9300    1.0200 C   0  0  0  0  0  3  0  0  0  0  0  0
  -41.5650   27.6450    3.3540 C   0  0  0  0  0  3  0  0  0  0  0  0
  -42.3330   24.7880    3.7730 C   0  0  0  0  0  0  0  0  0  0  0  0
  -41.2180   28.9610    3.2060 C   0  0  0  0  0  3  0  0  0  0  0  0
  -44.3180   23.7190    2.0720 C   0  0  0  0  0  0  0  0  0  0  0  0
  -43.4750   30.2240    0.5380 C   0  0  0  0  0  2  0  0  0  0  0  0
  -45.0310   27.9030   -0.2030 C   0  0  0  0  0  1  0  0  0  0  0  0
  -41.4610   31.1590    2.2220 C   0  0  0  0  0  3  0  0  0  0  0  0
  -43.7550   22.9260    3.1040 C   0  0  0  0  0  0  0  0  0  0  0  0
  -42.7590   23.4690    3.9170 C   0  0  0  0  0  3  0  0  0  0  0  0
  -43.0830   31.5450    0.4840 C   0  0  0  0  0  0  0  0  0  0  0  0
  -42.0530   32.0470    1.3510 C   0  0  0  0  0  0  0  0  0  0  0  0
  -41.3550   25.2830    4.5640 O   0  0  0  0  0  0  0  0  0  0  0  0
  -41.1580   24.7810    5.8850 C   0  0  0  0  0  1  0  0  0  0  0  0
  -44.2600   21.6760    3.1970 O   0  0  0  0  0  0  0  0  0  0  0  0
  -44.7180   21.2450    4.4860 C   0  0  0  0  0  1  0  0  0  0  0  0
  -45.3220   23.3440    1.2280 O   0  0  0  0  0  0  0  0  0  0  0  0
  -45.0320   22.5110    0.1060 C   0  0  0  0  0  1  0  0  0  0  0  0
  -43.6020   32.4930   -0.3400 O   0  0  0  0  0  0  0  0  0  0  0  0
  -44.3470   32.1350   -1.5000 C   0  0  0  0  0  1  0  0  0  0  0  0
  -41.5390   33.2950    1.4450 O   0  0  0  0  0  0  0  0  0  0  0  0
  -40.2130   33.4960    1.9300 C   0  0  0  0  0  1  0  0  0  0  0  0
  1  8  1  0  0  0  0
  1  2  1  0  0  0  0
  2  3  1  0  0  0  0
  3  4  2  0  0  0  0
  3  9  1  0  0  0  0
  4 10  1  0  0  0  0
  5  2  2  0  0  0  0
  5  7  1  0  0  0  0
  6 12  1  0  0  0  0
  6  4  1  0  0  0  0
  7 11  1  0  0  0  0
  8  6  2  0  0  0  0
 10 17  2  0  0  0  0
 10 20  1  0  0  0  0
 11  9  2  0  0  0  0
 12 16  2  0  0  0  0
 13  5  1  0  0  0  0
 14  1  1  0  0  0  0
 15  7  2  0  0  0  0
 16 22  1  0  0  0  0
 16 17  1  0  0  0  0
 18 13  1  0  0  0  0
 18 19  2  0  0  0  0
 19 28  1  0  0  0  0
 19 15  1  0  0  0  0
 20 21  1  0  0  0  0
 22 23  1  0  0  0  0
 24 12  1  0  0  0  0
 25 24  1  0  0  0  0
 26 18  1  0  0  0  0
 27 26  1  0  0  0  0
 28 29  1  0  0  0  0
M  END
>  <MODEL>
16

>  <REMARK>
 VINA RESULT:    -6.560     19.042     20.435
 INTER + INTRA:          -8.772
 INTER:                  -8.456
 INTRA:                  -0.316
 UNBOUND:                -0.294
  5 active torsions:
  status: ('A' for Active; 'I' for Inactive)
    1  A    between atoms: O1_1  and  C9_15 
    2  A    between atoms: O2_2  and  C11_17 
    3  A    between atoms: O3_3  and  C15_21 
    4  A    between atoms: O4_4  and  C17_23 
    5  A    between atoms: O5_5  and  C18_24 

>  <TORSDO>
F 5

$$$$
./Sanguilutina.pdbqt
 OpenBabel10282519553D

 29 32  0  0  0  0  0  0  0  0999 V2000
   -3.5250   36.8530    7.5340 N   0  0  0  0  0  0  0  0  0  0  0  0
   -3.8320   35.4910    7.7500 C   0  0  0  0  0  0  0  0  0  0  0  0
   -5.0620   35.2390    8.4280 C   0  0  0  0  0  0  0  0  0  0  0  0
   -5.9530   36.2920    8.9010 C   0  0  0  0  0  0  0  0  0  0  0  0
   -2.9910   34.3800    7.3330 C   0  0  0  0  0  0  0  0  0  0  0  0
   -5.5640   37.6410    8.6190 C   0  0  0  0  0  0  0  0  0  0  0  0
   -3.4240   33.0590    7.6040 C   0  0  0  0  0  0  0  0  0  0  0  0
   -4.3180   37.8360    7.9410 C   0  0  0  0  0  3  0  0  0  0  0  0
   -5.4570   33.8900    8.6560 C   0  0  0  0  0  3  0  0  0  0  0  0
   -7.1760   36.1370    9.6170 C   0  0  0  0  0  0  0  0  0  0  0  0
   -4.6700   32.8430    8.2570 C   0  0  0  0  0  3  0  0  0  0  0  0
   -6.3400   38.7620    8.9960 C   0  0  0  0  0  0  0  0  0  0  0  0
   -1.7250   34.4480    6.6570 C   0  0  0  0  0  2  0  0  0  0  0  0
   -2.2960   37.2760    6.8440 C   0  0  0  0  0  1  0  0  0  0  0  0
   -2.6750   31.8990    7.2630 C   0  0  0  0  0  3  0  0  0  0  0  0
   -7.5080   38.5450    9.7710 C   0  0  0  0  0  0  0  0  0  0  0  0
   -7.9130   37.2380   10.0450 C   0  0  0  0  0  3  0  0  0  0  0  0
   -0.9840   33.3330    6.3240 C   0  0  0  0  0  0  0  0  0  0  0  0
   -1.4530   32.0120    6.6370 C   0  0  0  0  0  0  0  0  0  0  0  0
   -7.6010   34.8810    9.8830 O   0  0  0  0  0  0  0  0  0  0  0  0
   -8.3260   34.5920   11.0770 C   0  0  0  0  0  1  0  0  0  0  0  0
   -8.1330   39.6710   10.1800 O   0  0  0  0  0  0  0  0  0  0  0  0
   -9.3940   39.5210   10.8450 C   0  0  0  0  0  1  0  0  0  0  0  0
   -5.7980   39.9730    8.6810 O   0  0  0  0  0  0  0  0  0  0  0  0
   -6.3170   40.7190    7.5810 C   0  0  0  0  0  1  0  0  0  0  0  0
    0.2260   33.3420    5.7040 O   0  0  0  0  0  0  0  0  0  0  0  0
    0.7060   34.5060    5.0390 C   0  0  0  0  0  1  0  0  0  0  0  0
   -0.8750   30.8130    6.3940 O   0  0  0  0  0  0  0  0  0  0  0  0
   -1.6210   29.6070    6.5460 C   0  0  0  0  0  1  0  0  0  0  0  0
  1  2  1  0  0  0  0
  1  8  1  0  0  0  0
  2  3  1  0  0  0  0
  3  9  1  0  0  0  0
  3  4  2  0  0  0  0
  4 10  1  0  0  0  0
  5  7  1  0  0  0  0
  5  2  2  0  0  0  0
  6  4  1  0  0  0  0
  6 12  1  0  0  0  0
  7 11  1  0  0  0  0
  8  6  2  0  0  0  0
 10 20  1  0  0  0  0
 10 17  2  0  0  0  0
 11  9  2  0  0  0  0
 12 16  2  0  0  0  0
 13  5  1  0  0  0  0
 14  1  1  0  0  0  0
 15  7  2  0  0  0  0
 16 17  1  0  0  0  0
 16 22  1  0  0  0  0
 18 19  2  0  0  0  0
 18 13  1  0  0  0  0
 19 15  1  0  0  0  0
 20 21  1  0  0  0  0
 22 23  1  0  0  0  0
 24 12  1  0  0  0  0
 25 24  1  0  0  0  0
 26 18  1  0  0  0  0
 27 26  1  0  0  0  0
 28 29  1  0  0  0  0
 28 19  1  0  0  0  0
M  END
>  <MODEL>
17

>  <REMARK>
 VINA RESULT:    -6.558     39.074     40.419
 INTER + INTRA:          -8.769
 INTER:                  -8.462
 INTRA:                  -0.307
 UNBOUND:                -0.294
  5 active torsions:
  status: ('A' for Active; 'I' for Inactive)
    1  A    between atoms: O1_1  and  C9_15 
    2  A    between atoms: O2_2  and  C11_17 
    3  A    between atoms: O3_3  and  C15_21 
    4  A    between atoms: O4_4  and  C17_23 
    5  A    between atoms: O5_5  and  C18_24 

>  <TORSDO>
F 5

$$$$
./Sanguilutina.pdbqt
 OpenBabel10282519553D

 29 32  0  0  0  0  0  0  0  0999 V2000
  -37.0670   20.4400  -16.1280 N   0  0  0  0  0  0  0  0  0  0  0  0
  -37.0110   21.3950  -15.0890 C   0  0  0  0  0  0  0  0  0  0  0  0
  -38.2730   21.7890  -14.5500 C   0  0  0  0  0  0  0  0  0  0  0  0
  -39.5510   21.2800  -15.0340 C   0  0  0  0  0  0  0  0  0  0  0  0
  -35.7850   21.9720  -14.5620 C   0  0  0  0  0  0  0  0  0  0  0  0
  -39.5020   20.3020  -16.0790 C   0  0  0  0  0  0  0  0  0  0  0  0
  -35.8720   22.9140  -13.5080 C   0  0  0  0  0  0  0  0  0  0  0  0
  -38.2100   19.9470  -16.5850 C   0  0  0  0  0  3  0  0  0  0  0  0
  -38.3000   22.7260  -13.4780 C   0  0  0  0  0  3  0  0  0  0  0  0
  -40.8550   21.6430  -14.5860 C   0  0  0  0  0  0  0  0  0  0  0  0
  -37.1450   23.2630  -12.9760 C   0  0  0  0  0  3  0  0  0  0  0  0
  -40.6590   19.7030  -16.6290 C   0  0  0  0  0  0  0  0  0  0  0  0
  -34.4390   21.7030  -14.9890 C   0  0  0  0  0  2  0  0  0  0  0  0
  -35.8510   19.9280  -16.7820 C   0  0  0  0  0  1  0  0  0  0  0  0
  -34.7430   23.5580  -12.9310 C   0  0  0  0  0  3  0  0  0  0  0  0
  -41.9290   20.1610  -16.1930 C   0  0  0  0  0  0  0  0  0  0  0  0
  -42.0000   21.1030  -15.1660 C   0  0  0  0  0  3  0  0  0  0  0  0
  -33.3340   22.3230  -14.4440 C   0  0  0  0  0  0  0  0  0  0  0  0
  -33.4720   23.2890  -13.3890 C   0  0  0  0  0  0  0  0  0  0  0  0
  -40.9530   22.5420  -13.5800 O   0  0  0  0  0  0  0  0  0  0  0  0
  -42.2210   23.0730  -13.1960 C   0  0  0  0  0  1  0  0  0  0  0  0
  -42.9810   19.6160  -16.8430 O   0  0  0  0  0  0  0  0  0  0  0  0
  -43.9570   18.9250  -16.0540 C   0  0  0  0  0  1  0  0  0  0  0  0
  -40.4280   18.8220  -17.6440 O   0  0  0  0  0  0  0  0  0  0  0  0
  -40.6040   19.2370  -18.9980 C   0  0  0  0  0  1  0  0  0  0  0  0
  -32.0450   22.1210  -14.8240 O   0  0  0  0  0  0  0  0  0  0  0  0
  -31.7270   21.3470  -15.9760 C   0  0  0  0  0  1  0  0  0  0  0  0
  -32.5190   23.9930  -12.7360 O   0  0  0  0  0  0  0  0  0  0  0  0
  -31.9710   23.5060  -11.5130 C   0  0  0  0  0  1  0  0  0  0  0  0
  1  2  1  0  0  0  0
  2  5  2  0  0  0  0
  2  3  1  0  0  0  0
  3  9  1  0  0  0  0
  4 10  1  0  0  0  0
  4  3  2  0  0  0  0
  5  7  1  0  0  0  0
  6  4  1  0  0  0  0
  7 11  1  0  0  0  0
  7 15  2  0  0  0  0
  8  1  1  0  0  0  0
  8  6  2  0  0  0  0
  9 11  2  0  0  0  0
 10 20  1  0  0  0  0
 12 16  2  0  0  0  0
 12  6  1  0  0  0  0
 13  5  1  0  0  0  0
 13 18  1  0  0  0  0
 14  1  1  0  0  0  0
 16 17  1  0  0  0  0
 17 10  2  0  0  0  0
 18 19  2  0  0  0  0
 19 15  1  0  0  0  0
 19 28  1  0  0  0  0
 20 21  1  0  0  0  0
 22 16  1  0  0  0  0
 22 23  1  0  0  0  0
 24 12  1  0  0  0  0
 25 24  1  0  0  0  0
 26 18  1  0  0  0  0
 27 26  1  0  0  0  0
 28 29  1  0  0  0  0
M  END
>  <MODEL>
18

>  <REMARK>
 VINA RESULT:    -6.537      2.573      5.114
 INTER + INTRA:          -8.741
 INTER:                  -8.511
 INTRA:                  -0.230
 UNBOUND:                -0.294
  5 active torsions:
  status: ('A' for Active; 'I' for Inactive)
    1  A    between atoms: O1_1  and  C9_15 
    2  A    between atoms: O2_2  and  C11_17 
    3  A    between atoms: O3_3  and  C15_21 
    4  A    between atoms: O4_4  and  C17_23 
    5  A    between atoms: O5_5  and  C18_24 

>  <TORSDO>
F 5

$$$$
./Sanguilutina.pdbqt
 OpenBabel10282519553D

 29 32  0  0  0  0  0  0  0  0999 V2000
  -42.1630   26.3310    3.1470 N   0  0  0  0  0  0  0  0  0  0  0  0
  -42.4880   27.4430    2.3380 C   0  0  0  0  0  0  0  0  0  0  0  0
  -43.2740   27.1510    1.1830 C   0  0  0  0  0  0  0  0  0  0  0  0
  -43.7080   25.8070    0.8200 C   0  0  0  0  0  0  0  0  0  0  0  0
  -42.0790   28.8110    2.6110 C   0  0  0  0  0  0  0  0  0  0  0  0
  -43.3430   24.7490    1.7130 C   0  0  0  0  0  0  0  0  0  0  0  0
  -42.4840   29.8350    1.7210 C   0  0  0  0  0  0  0  0  0  0  0  0
  -42.5490   25.0970    2.8530 C   0  0  0  0  0  3  0  0  0  0  0  0
  -43.6700   28.2240    0.3330 C   0  0  0  0  0  2  0  0  0  0  0  0
  -44.4590   25.4180   -0.3270 C   0  0  0  0  0  0  0  0  0  0  0  0
  -43.2920   29.5130    0.5940 C   0  0  0  0  0  3  0  0  0  0  0  0
  -43.7140   23.4000    1.5030 C   0  0  0  0  0  0  0  0  0  0  0  0
  -41.2820   29.2810    3.7110 C   0  0  0  0  0  3  0  0  0  0  0  0
  -41.3640   26.4690    4.3750 C   0  0  0  0  0  1  0  0  0  0  0  0
  -42.1250   31.2020    1.8760 C   0  0  0  0  0  3  0  0  0  0  0  0
  -44.3960   23.0660    0.3040 C   0  0  0  0  0  0  0  0  0  0  0  0
  -44.7730   24.0840   -0.5730 C   0  0  0  0  0  3  0  0  0  0  0  0
  -40.9210   30.6020    3.8730 C   0  0  0  0  0  0  0  0  0  0  0  0
  -41.3380   31.6050    2.9330 C   0  0  0  0  0  0  0  0  0  0  0  0
  -44.8520   26.3850   -1.1870 O   0  0  0  0  0  0  0  0  0  0  0  0
  -44.7760   26.1850   -2.5980 C   0  0  0  0  0  1  0  0  0  0  0  0
  -44.6180   21.7450    0.1290 O   0  0  0  0  0  0  0  0  0  0  0  0
  -45.5390   21.3630   -0.9010 C   0  0  0  0  0  1  0  0  0  0  0  0
  -43.2460   22.5200    2.4330 O   0  0  0  0  0  0  0  0  0  0  0  0
  -44.1400   21.9670    3.3990 C   0  0  0  0  0  1  0  0  0  0  0  0
  -40.1530   31.0960    4.8810 O   0  0  0  0  0  0  0  0  0  0  0  0
  -38.7350   31.1550    4.7680 C   0  0  0  0  0  1  0  0  0  0  0  0
  -41.0870   32.9350    2.9230 O   0  0  0  0  0  0  0  0  0  0  0  0
  -40.3330   33.5200    1.8640 C   0  0  0  0  0  1  0  0  0  0  0  0
  1 14  1  0  0  0  0
  2  5  2  0  0  0  0
  2  1  1  0  0  0  0
  3  2  1  0  0  0  0
  4  3  2  0  0  0  0
  4  6  1  0  0  0  0
  5 13  1  0  0  0  0
  6  8  2  0  0  0  0
  7 15  1  0  0  0  0
  7  5  1  0  0  0  0
  8  1  1  0  0  0  0
  9 11  1  0  0  0  0
  9  3  1  0  0  0  0
 10  4  1  0  0  0  0
 11  7  2  0  0  0  0
 12  6  1  0  0  0  0
 12 24  1  0  0  0  0
 13 18  2  0  0  0  0
 15 19  2  0  0  0  0
 16 12  2  0  0  0  0
 17 10  2  0  0  0  0
 17 16  1  0  0  0  0
 18 26  1  0  0  0  0
 19 18  1  0  0  0  0
 20 10  1  0  0  0  0
 21 20  1  0  0  0  0
 22 16  1  0  0  0  0
 23 22  1  0  0  0  0
 24 25  1  0  0  0  0
 27 26  1  0  0  0  0
 28 19  1  0  0  0  0
 29 28  1  0  0  0  0
M  END
>  <MODEL>
19

>  <REMARK>
 VINA RESULT:    -6.502     17.539     19.763
 INTER + INTRA:          -8.696
 INTER:                  -8.358
 INTRA:                  -0.338
 UNBOUND:                -0.294
  5 active torsions:
  status: ('A' for Active; 'I' for Inactive)
    1  A    between atoms: O1_1  and  C9_15 
    2  A    between atoms: O2_2  and  C11_17 
    3  A    between atoms: O3_3  and  C15_21 
    4  A    between atoms: O4_4  and  C17_23 
    5  A    between atoms: O5_5  and  C18_24 

>  <TORSDO>
F 5

$$$$
./Sanguilutina.pdbqt
 OpenBabel10282519553D

 29 32  0  0  0  0  0  0  0  0999 V2000
  -43.9390   28.1370   -2.2820 N   0  0  0  0  0  0  0  0  0  0  0  0
  -43.6690   27.9040   -0.9160 C   0  0  0  0  0  0  0  0  0  0  0  0
  -43.4980   26.5360   -0.5490 C   0  0  0  0  0  0  0  0  0  0  0  0
  -43.6130   25.4280   -1.4900 C   0  0  0  0  0  0  0  0  0  0  0  0
  -43.5600   28.9450    0.0940 C   0  0  0  0  0  0  0  0  0  0  0  0
  -43.8720   25.7670   -2.8570 C   0  0  0  0  0  0  0  0  0  0  0  0
  -43.2740   28.5730    1.4290 C   0  0  0  0  0  0  0  0  0  0  0  0
  -44.0390   27.1540   -3.1680 C   0  0  0  0  0  3  0  0  0  0  0  0
  -43.1930   26.2210    0.8070 C   0  0  0  0  0  3  0  0  0  0  0  0
  -43.4970   24.0350   -1.2080 C   0  0  0  0  0  0  0  0  0  0  0  0
  -43.0820   27.2010    1.7560 C   0  0  0  0  0  3  0  0  0  0  0  0
  -43.9840   24.8000   -3.8830 C   0  0  0  0  0  0  0  0  0  0  0  0
  -43.7140   30.3620   -0.0930 C   0  0  0  0  0  2  0  0  0  0  0  0
  -44.1330   29.4940   -2.8180 C   0  0  0  0  0  1  0  0  0  0  0  0
  -43.1670   29.5020    2.5020 C   0  0  0  0  0  3  0  0  0  0  0  0
  -43.9340   23.4280   -3.5260 C   0  0  0  0  0  0  0  0  0  0  0  0
  -43.6690   23.0750   -2.2030 C   0  0  0  0  0  3  0  0  0  0  0  0
  -43.6190   31.2760    0.9370 C   0  0  0  0  0  0  0  0  0  0  0  0
  -43.3470   30.8500    2.2820 C   0  0  0  0  0  0  0  0  0  0  0  0
  -43.2250   23.6650    0.0640 O   0  0  0  0  0  0  0  0  0  0  0  0
  -43.9250   22.5820    0.6760 C   0  0  0  0  0  1  0  0  0  0  0  0
  -44.1570   22.5700   -4.5460 O   0  0  0  0  0  0  0  0  0  0  0  0
  -45.4810   22.0390   -4.6840 C   0  0  0  0  0  1  0  0  0  0  0  0
  -44.2720   25.2990   -5.1190 O   0  0  0  0  0  0  0  0  0  0  0  0
  -43.3610   25.0900   -6.1980 C   0  0  0  0  0  1  0  0  0  0  0  0
  -43.7760   32.6210    0.8190 O   0  0  0  0  0  0  0  0  0  0  0  0
  -42.6520   33.4890    0.7100 C   0  0  0  0  0  1  0  0  0  0  0  0
  -43.2190   31.5870    3.4090 O   0  0  0  0  0  0  0  0  0  0  0  0
  -42.0660   31.4480    4.2370 C   0  0  0  0  0  1  0  0  0  0  0  0
  1  2  1  0  0  0  0
  2  3  1  0  0  0  0
  2  5  2  0  0  0  0
  3  9  1  0  0  0  0
  4 10  1  0  0  0  0
  4  3  2  0  0  0  0
  5  7  1  0  0  0  0
  6  4  1  0  0  0  0
  7 11  1  0  0  0  0
  7 15  2  0  0  0  0
  8  6  2  0  0  0  0
  8  1  1  0  0  0  0
  9 11  2  0  0  0  0
 10 20  1  0  0  0  0
 12 16  2  0  0  0  0
 12  6  1  0  0  0  0
 13  5  1  0  0  0  0
 13 18  1  0  0  0  0
 14  1  1  0  0  0  0
 16 17  1  0  0  0  0
 17 10  2  0  0  0  0
 18 19  2  0  0  0  0
 19 15  1  0  0  0  0
 19 28  1  0  0  0  0
 20 21  1  0  0  0  0
 22 16  1  0  0  0  0
 23 22  1  0  0  0  0
 24 12  1  0  0  0  0
 25 24  1  0  0  0  0
 26 18  1  0  0  0  0
 27 26  1  0  0  0  0
 28 29  1  0  0  0  0
M  END
>  <MODEL>
20

>  <REMARK>
 VINA RESULT:    -6.452     15.322     18.035
 INTER + INTRA:          -8.631
 INTER:                  -8.391
 INTRA:                  -0.240
 UNBOUND:                -0.294
  5 active torsions:
  status: ('A' for Active; 'I' for Inactive)
    1  A    between atoms: O1_1  and  C9_15 
    2  A    between atoms: O2_2  and  C11_17 
    3  A    between atoms: O3_3  and  C15_21 
    4  A    between atoms: O4_4  and  C17_23 
    5  A    between atoms: O5_5  and  C18_24 

>  <TORSDO>
F 5

$$$$
