./Sanguinarina.pdbqt
 OpenBabel10282519553D

 25 30  0  0  0  0  0  0  0  0999 V2000
  -33.8640   17.7950  -17.8560 O   0  0  0  0  0  0  0  0  0  0  0  0
  -36.1300   17.6610  -18.5130 O   0  0  0  0  0  0  0  0  0  0  0  0
  -30.5060   22.9900  -10.7140 O   0  0  0  0  0  0  0  0  0  0  0  0
  -31.7730   24.9400  -10.3130 O   0  0  0  0  0  0  0  0  0  0  0  0
  -32.3500   20.8950  -15.2610 N   0  0  0  0  0  0  0  0  0  0  0  0
  -33.2780   21.7400  -14.6110 C   0  0  0  0  0  0  0  0  0  0  0  0
  -34.5900   21.7990  -15.1220 C   0  0  0  0  0  0  0  0  0  0  0  0
  -35.0720   20.7860  -16.0330 C   0  0  0  0  0  0  0  0  0  0  0  0
  -32.9160   22.5310  -13.4680 C   0  0  0  0  0  0  0  0  0  0  0  0
  -34.1140   19.8290  -16.4850 C   0  0  0  0  0  0  0  0  0  0  0  0
  -33.7480   23.6290  -13.1400 C   0  0  0  0  0  0  0  0  0  0  0  0
  -32.7480   19.9730  -16.1310 C   0  0  0  0  0  3  0  0  0  0  0  0
  -34.5810   18.8150  -17.3150 C   0  0  0  0  0  0  0  0  0  0  0  0
  -35.4230   22.8790  -14.7260 C   0  0  0  0  0  2  0  0  0  0  0  0
  -34.9870   23.8040  -13.8190 C   0  0  0  0  0  3  0  0  0  0  0  0
  -31.8070   22.2070  -12.6270 C   0  0  0  0  0  3  0  0  0  0  0  0
  -36.4110   20.6920  -16.4410 C   0  0  0  0  0  3  0  0  0  0  0  0
  -35.9310   18.7430  -17.7010 C   0  0  0  0  0  0  0  0  0  0  0  0
  -33.4090   24.5410  -12.0920 C   0  0  0  0  0  3  0  0  0  0  0  0
  -31.5140   23.0770  -11.6220 C   0  0  0  0  0  0  0  0  0  0  0  0
  -32.2950   24.2560  -11.3690 C   0  0  0  0  0  0  0  0  0  0  0  0
  -30.9010   21.1180  -15.1360 C   0  0  0  0  0  1  0  0  0  0  0  0
  -36.8660   19.6710  -17.2800 C   0  0  0  0  0  3  0  0  0  0  0  0
  -34.8340   17.0250  -18.6310 C   0  0  0  0  0  2  0  0  0  0  0  0
  -30.6400   24.1570   -9.8620 C   0  0  0  0  0  2  0  0  0  0  0  0
  1 13  1  0  0  0  0
  2 18  1  0  0  0  0
  3 25  1  0  0  0  0
  4 25  1  0  0  0  0
  5 22  1  0  0  0  0
  5  6  1  0  0  0  0
  6  9  2  0  0  0  0
  7 14  1  0  0  0  0
  7  6  1  0  0  0  0
  8  7  2  0  0  0  0
  9 11  1  0  0  0  0
  9 16  1  0  0  0  0
 10 12  2  0  0  0  0
 10  8  1  0  0  0  0
 11 19  1  0  0  0  0
 12  5  1  0  0  0  0
 13 10  1  0  0  0  0
 14 15  1  0  0  0  0
 15 11  2  0  0  0  0
 16 20  2  0  0  0  0
 17  8  1  0  0  0  0
 18 13  2  0  0  0  0
 18 23  1  0  0  0  0
 19 21  2  0  0  0  0
 20 21  1  0  0  0  0
 20  3  1  0  0  0  0
 21  4  1  0  0  0  0
 23 17  2  0  0  0  0
 24  2  1  0  0  0  0
 24  1  1  0  0  0  0
M  END
>  <MODEL>
1

>  <REMARK>
 VINA RESULT:   -10.343      0.000      0.000
 INTER + INTRA:         -10.343
 INTER:                 -10.343
 INTRA:                   0.000
 UNBOUND:                 0.000
  0 active torsions:
  status: ('A' for Active; 'I' for Inactive)

>  <TORSDO>
F 0

$$$$
./Sanguinarina.pdbqt
 OpenBabel10282519553D

 25 30  0  0  0  0  0  0  0  0999 V2000
  -32.2130   24.0890  -11.8430 O   0  0  0  0  0  0  0  0  0  0  0  0
  -30.0980   23.0420  -11.7290 O   0  0  0  0  0  0  0  0  0  0  0  0
  -39.9440   20.4420  -15.8710 O   0  0  0  0  0  0  0  0  0  0  0  0
  -39.4540   18.9950  -17.6690 O   0  0  0  0  0  0  0  0  0  0  0  0
  -35.3430   22.7770  -14.5120 N   0  0  0  0  0  0  0  0  0  0  0  0
  -35.1740   21.5510  -15.1940 C   0  0  0  0  0  0  0  0  0  0  0  0
  -33.8720   21.0180  -15.2850 C   0  0  0  0  0  0  0  0  0  0  0  0
  -32.8170   21.5000  -14.4240 C   0  0  0  0  0  0  0  0  0  0  0  0
  -36.2780   20.8540  -15.7920 C   0  0  0  0  0  0  0  0  0  0  0  0
  -33.1320   22.6220  -13.5990 C   0  0  0  0  0  0  0  0  0  0  0  0
  -35.9850   19.8850  -16.7810 C   0  0  0  0  0  0  0  0  0  0  0  0
  -34.3840   23.2730  -13.7370 C   0  0  0  0  0  3  0  0  0  0  0  0
  -32.1420   23.0560  -12.7240 C   0  0  0  0  0  0  0  0  0  0  0  0
  -33.6230   20.0020  -16.2450 C   0  0  0  0  0  2  0  0  0  0  0  0
  -34.6340   19.5040  -17.0190 C   0  0  0  0  0  3  0  0  0  0  0  0
  -37.6310   21.0530  -15.3750 C   0  0  0  0  0  3  0  0  0  0  0  0
  -31.5520   20.8980  -14.3460 C   0  0  0  0  0  3  0  0  0  0  0  0
  -30.8850   22.4290  -12.6630 C   0  0  0  0  0  0  0  0  0  0  0  0
  -37.0200   19.2220  -17.5140 C   0  0  0  0  0  3  0  0  0  0  0  0
  -38.5990   20.3970  -16.0710 C   0  0  0  0  0  0  0  0  0  0  0  0
  -38.2990   19.5030  -17.1550 C   0  0  0  0  0  0  0  0  0  0  0  0
  -36.5080   23.6370  -14.7700 C   0  0  0  0  0  1  0  0  0  0  0  0
  -30.5640   21.3480  -13.4650 C   0  0  0  0  0  3  0  0  0  0  0  0
  -30.9130   24.1040  -11.1770 C   0  0  0  0  0  2  0  0  0  0  0  0
  -40.5210   19.5600  -16.8690 C   0  0  0  0  0  2  0  0  0  0  0  0
  1 24  1  0  0  0  0
  2 24  1  0  0  0  0
  4 21  1  0  0  0  0
  4 25  1  0  0  0  0
  5 12  1  0  0  0  0
  6  5  1  0  0  0  0
  7  6  1  0  0  0  0
  7  8  2  0  0  0  0
  8 17  1  0  0  0  0
  8 10  1  0  0  0  0
  9 16  1  0  0  0  0
  9  6  2  0  0  0  0
 10 13  1  0  0  0  0
 11  9  1  0  0  0  0
 12 10  2  0  0  0  0
 13 18  2  0  0  0  0
 13  1  1  0  0  0  0
 14  7  1  0  0  0  0
 15 11  2  0  0  0  0
 15 14  1  0  0  0  0
 17 23  2  0  0  0  0
 18  2  1  0  0  0  0
 19 21  2  0  0  0  0
 19 11  1  0  0  0  0
 20  3  1  0  0  0  0
 20 16  2  0  0  0  0
 21 20  1  0  0  0  0
 22  5  1  0  0  0  0
 23 18  1  0  0  0  0
 25  3  1  0  0  0  0
M  END
>  <MODEL>
2

>  <REMARK>
 VINA RESULT:   -10.165      1.980      7.542
 INTER + INTRA:         -10.165
 INTER:                 -10.165
 INTRA:                   0.000
 UNBOUND:                 0.000
  0 active torsions:
  status: ('A' for Active; 'I' for Inactive)

>  <TORSDO>
F 0

$$$$
./Sanguinarina.pdbqt
 OpenBabel10282519553D

 25 30  0  0  0  0  0  0  0  0999 V2000
  -37.9910   20.1780  -16.4710 O   0  0  0  0  0  0  0  0  0  0  0  0
  -40.0750   20.7100  -15.4920 O   0  0  0  0  0  0  0  0  0  0  0  0
  -29.5180   22.0870  -12.7500 O   0  0  0  0  0  0  0  0  0  0  0  0
  -29.5160   24.0240  -11.4020 O   0  0  0  0  0  0  0  0  0  0  0  0
  -34.2690   21.9390  -15.1750 N   0  0  0  0  0  0  0  0  0  0  0  0
  -34.2650   22.7040  -13.9870 C   0  0  0  0  0  0  0  0  0  0  0  0
  -35.4990   23.1790  -13.5020 C   0  0  0  0  0  0  0  0  0  0  0  0
  -36.7440   22.6220  -13.9810 C   0  0  0  0  0  0  0  0  0  0  0  0
  -33.0510   23.0070  -13.2800 C   0  0  0  0  0  0  0  0  0  0  0  0
  -36.6490   21.6840  -15.0530 C   0  0  0  0  0  0  0  0  0  0  0  0
  -33.0760   24.0880  -12.3660 C   0  0  0  0  0  0  0  0  0  0  0  0
  -35.3960   21.4350  -15.6680 C   0  0  0  0  0  3  0  0  0  0  0  0
  -37.8350   21.0970  -15.4810 C   0  0  0  0  0  0  0  0  0  0  0  0
  -35.4910   24.2230  -12.5390 C   0  0  0  0  0  3  0  0  0  0  0  0
  -34.3150   24.7110  -12.0420 C   0  0  0  0  0  3  0  0  0  0  0  0
  -31.8650   22.2210  -13.4150 C   0  0  0  0  0  2  0  0  0  0  0  0
  -37.9920   22.9290  -13.4190 C   0  0  0  0  0  3  0  0  0  0  0  0
  -39.0710   21.4200  -14.8940 C   0  0  0  0  0  0  0  0  0  0  0  0
  -31.8910   24.5380  -11.7030 C   0  0  0  0  0  3  0  0  0  0  0  0
  -30.7540   22.6550  -12.7590 C   0  0  0  0  0  0  0  0  0  0  0  0
  -30.7570   23.8250  -11.9250 C   0  0  0  0  0  0  0  0  0  0  0  0
  -33.0600   21.8180  -16.0060 C   0  0  0  0  0  1  0  0  0  0  0  0
  -39.1760   22.3350  -13.8620 C   0  0  0  0  0  3  0  0  0  0  0  0
  -39.4250   19.9000  -16.5000 C   0  0  0  0  0  2  0  0  0  0  0  0
  -28.7020   22.9300  -11.8950 C   0  0  0  0  0  2  0  0  0  0  0  0
  1 13  1  0  0  0  0
  2 18  1  0  0  0  0
  3 25  1  0  0  0  0
  5  6  1  0  0  0  0
  6  7  1  0  0  0  0
  6  9  2  0  0  0  0
  7 14  1  0  0  0  0
  8  7  2  0  0  0  0
  8 17  1  0  0  0  0
  9 11  1  0  0  0  0
 10  8  1  0  0  0  0
 11 15  1  0  0  0  0
 11 19  2  0  0  0  0
 12  5  1  0  0  0  0
 12 10  2  0  0  0  0
 13 10  1  0  0  0  0
 13 18  2  0  0  0  0
 14 15  2  0  0  0  0
 16  9  1  0  0  0  0
 16 20  1  0  0  0  0
 18 23  1  0  0  0  0
 20  3  1  0  0  0  0
 20 21  2  0  0  0  0
 21 19  1  0  0  0  0
 21  4  1  0  0  0  0
 22  5  1  0  0  0  0
 23 17  2  0  0  0  0
 24  1  1  0  0  0  0
 24  2  1  0  0  0  0
 25  4  1  0  0  0  0
M  END
>  <MODEL>
3

>  <REMARK>
 VINA RESULT:   -10.095      2.363      3.288
 INTER + INTRA:         -10.095
 INTER:                 -10.095
 INTRA:                   0.000
 UNBOUND:                 0.000
  0 active torsions:
  status: ('A' for Active; 'I' for Inactive)

>  <TORSDO>
F 0

$$$$
./Sanguinarina.pdbqt
 OpenBabel10282519553D

 25 30  0  0  0  0  0  0  0  0999 V2000
  -30.3040   23.4530  -12.0280 O   0  0  0  0  0  0  0  0  0  0  0  0
  -28.7840   21.8110  -12.7870 O   0  0  0  0  0  0  0  0  0  0  0  0
  -39.7020   23.0910  -12.9370 O   0  0  0  0  0  0  0  0  0  0  0  0
  -40.4000   21.9010  -14.8520 O   0  0  0  0  0  0  0  0  0  0  0  0
  -34.4110   23.6420  -13.3450 N   0  0  0  0  0  0  0  0  0  0  0  0
  -34.9260   22.5620  -14.0970 C   0  0  0  0  0  0  0  0  0  0  0  0
  -34.0080   21.6830  -14.7060 C   0  0  0  0  0  0  0  0  0  0  0  0
  -32.6220   21.6630  -14.2970 C   0  0  0  0  0  0  0  0  0  0  0  0
  -36.3370   22.3490  -14.2560 C   0  0  0  0  0  0  0  0  0  0  0  0
  -32.2220   22.6660  -13.3620 C   0  0  0  0  0  0  0  0  0  0  0  0
  -36.7610   21.5250  -15.3260 C   0  0  0  0  0  0  0  0  0  0  0  0
  -33.1340   23.6800  -12.9770 C   0  0  0  0  0  3  0  0  0  0  0  0
  -30.9050   22.6190  -12.9160 C   0  0  0  0  0  0  0  0  0  0  0  0
  -34.4760   20.8230  -15.7360 C   0  0  0  0  0  2  0  0  0  0  0  0
  -35.7980   20.8000  -16.0830 C   0  0  0  0  0  3  0  0  0  0  0  0
  -37.3020   22.8730  -13.3410 C   0  0  0  0  0  3  0  0  0  0  0  0
  -31.7010   20.7020  -14.7400 C   0  0  0  0  0  3  0  0  0  0  0  0
  -30.0070   21.6390  -13.3740 C   0  0  0  0  0  0  0  0  0  0  0  0
  -38.1460   21.3470  -15.6340 C   0  0  0  0  0  3  0  0  0  0  0  0
  -38.6150   22.6750  -13.6410 C   0  0  0  0  0  0  0  0  0  0  0  0
  -39.0390   21.9370  -14.7980 C   0  0  0  0  0  0  0  0  0  0  0  0
  -35.2170   24.8470  -13.0940 C   0  0  0  0  0  1  0  0  0  0  0  0
  -30.3800   20.6690  -14.2870 C   0  0  0  0  0  3  0  0  0  0  0  0
  -28.9350   22.9570  -11.9140 C   0  0  0  0  0  2  0  0  0  0  0  0
  -40.8570   22.6150  -13.6760 C   0  0  0  0  0  2  0  0  0  0  0  0
  1 24  1  0  0  0  0
  2 24  1  0  0  0  0
  4 21  1  0  0  0  0
  4 25  1  0  0  0  0
  5 22  1  0  0  0  0
  5 12  1  0  0  0  0
  6  5  1  0  0  0  0
  7  8  2  0  0  0  0
  7  6  1  0  0  0  0
  8 10  1  0  0  0  0
  9  6  2  0  0  0  0
  9 16  1  0  0  0  0
 10 12  2  0  0  0  0
 10 13  1  0  0  0  0
 11  9  1  0  0  0  0
 13  1  1  0  0  0  0
 14  7  1  0  0  0  0
 15 14  1  0  0  0  0
 15 11  2  0  0  0  0
 17  8  1  0  0  0  0
 17 23  2  0  0  0  0
 18 13  2  0  0  0  0
 18  2  1  0  0  0  0
 19 11  1  0  0  0  0
 19 21  2  0  0  0  0
 20 16  2  0  0  0  0
 20  3  1  0  0  0  0
 21 20  1  0  0  0  0
 23 18  1  0  0  0  0
 25  3  1  0  0  0  0
M  END
>  <MODEL>
4

>  <REMARK>
 VINA RESULT:    -9.830      3.063      6.800
 INTER + INTRA:          -9.830
 INTER:                  -9.830
 INTRA:                   0.000
 UNBOUND:                 0.000
  0 active torsions:
  status: ('A' for Active; 'I' for Inactive)

>  <TORSDO>
F 0

$$$$
./Sanguinarina.pdbqt
 OpenBabel10282519553D

 25 30  0  0  0  0  0  0  0  0999 V2000
  -28.6900   21.8120  -13.2290 O   0  0  0  0  0  0  0  0  0  0  0  0
  -28.2450   23.4400  -11.5750 O   0  0  0  0  0  0  0  0  0  0  0  0
  -36.5700   21.2480  -18.4120 O   0  0  0  0  0  0  0  0  0  0  0  0
  -38.4770   22.0680  -17.2880 O   0  0  0  0  0  0  0  0  0  0  0  0
  -32.6430   21.0830  -14.8050 N   0  0  0  0  0  0  0  0  0  0  0  0
  -33.6760   21.9890  -14.4740 C   0  0  0  0  0  0  0  0  0  0  0  0
  -33.4810   22.8380  -13.3650 C   0  0  0  0  0  0  0  0  0  0  0  0
  -32.1620   23.0350  -12.8100 C   0  0  0  0  0  0  0  0  0  0  0  0
  -34.8980   22.0570  -15.2240 C   0  0  0  0  0  0  0  0  0  0  0  0
  -31.1180   22.2240  -13.3490 C   0  0  0  0  0  0  0  0  0  0  0  0
  -36.0150   22.6690  -14.6060 C   0  0  0  0  0  0  0  0  0  0  0  0
  -31.4230   21.2080  -14.2900 C   0  0  0  0  0  3  0  0  0  0  0  0
  -29.8340   22.4480  -12.8630 C   0  0  0  0  0  0  0  0  0  0  0  0
  -34.6130   23.4880  -12.8050 C   0  0  0  0  0  3  0  0  0  0  0  0
  -35.8520   23.3480  -13.3660 C   0  0  0  0  0  3  0  0  0  0  0  0
  -34.9990   21.6000  -16.5750 C   0  0  0  0  0  2  0  0  0  0  0  0
  -31.8770   23.9910  -11.8230 C   0  0  0  0  0  3  0  0  0  0  0  0
  -29.5780   23.4180  -11.8780 C   0  0  0  0  0  0  0  0  0  0  0  0
  -37.3040   22.6820  -15.2270 C   0  0  0  0  0  3  0  0  0  0  0  0
  -36.2300   21.6400  -17.1550 C   0  0  0  0  0  0  0  0  0  0  0  0
  -37.3860   22.1550  -16.4760 C   0  0  0  0  0  0  0  0  0  0  0  0
  -32.9180   19.8680  -15.5870 C   0  0  0  0  0  1  0  0  0  0  0  0
  -30.5830   24.2020  -11.3400 C   0  0  0  0  0  3  0  0  0  0  0  0
  -27.6420   22.4330  -12.4230 C   0  0  0  0  0  2  0  0  0  0  0  0
  -37.9940   21.5070  -18.5340 C   0  0  0  0  0  2  0  0  0  0  0  0
  1 13  1  0  0  0  0
  1 24  1  0  0  0  0
  3 20  1  0  0  0  0
  4 21  1  0  0  0  0
  5  6  1  0  0  0  0
  5 12  1  0  0  0  0
  6  7  1  0  0  0  0
  7  8  2  0  0  0  0
  7 14  1  0  0  0  0
  8 17  1  0  0  0  0
  9 11  1  0  0  0  0
  9  6  2  0  0  0  0
 10 13  1  0  0  0  0
 10  8  1  0  0  0  0
 11 15  1  0  0  0  0
 12 10  2  0  0  0  0
 13 18  2  0  0  0  0
 15 14  2  0  0  0  0
 16  9  1  0  0  0  0
 17 23  2  0  0  0  0
 18  2  1  0  0  0  0
 18 23  1  0  0  0  0
 19 11  2  0  0  0  0
 20 16  1  0  0  0  0
 20 21  2  0  0  0  0
 21 19  1  0  0  0  0
 22  5  1  0  0  0  0
 24  2  1  0  0  0  0
 25  3  1  0  0  0  0
 25  4  1  0  0  0  0
M  END
>  <MODEL>
5

>  <REMARK>
 VINA RESULT:    -9.817      2.122      6.982
 INTER + INTRA:          -9.817
 INTER:                  -9.817
 INTRA:                   0.000
 UNBOUND:                 0.000
  0 active torsions:
  status: ('A' for Active; 'I' for Inactive)

>  <TORSDO>
F 0

$$$$
./Sanguinarina.pdbqt
 OpenBabel10282519553D

 25 30  0  0  0  0  0  0  0  0999 V2000
  -31.5280   24.3550  -11.9050 O   0  0  0  0  0  0  0  0  0  0  0  0
  -33.0830   25.9870  -11.1970 O   0  0  0  0  0  0  0  0  0  0  0  0
  -32.7090   18.4120  -19.1550 O   0  0  0  0  0  0  0  0  0  0  0  0
  -34.9710   17.8600  -19.5390 O   0  0  0  0  0  0  0  0  0  0  0  0
  -32.5700   21.1100  -14.5540 N   0  0  0  0  0  0  0  0  0  0  0  0
  -33.8330   21.1380  -15.1880 C   0  0  0  0  0  0  0  0  0  0  0  0
  -34.8250   21.9810  -14.6480 C   0  0  0  0  0  0  0  0  0  0  0  0
  -34.4750   23.0320  -13.7200 C   0  0  0  0  0  0  0  0  0  0  0  0
  -34.1230   20.3370  -16.3440 C   0  0  0  0  0  0  0  0  0  0  0  0
  -33.1160   23.0680  -13.2840 C   0  0  0  0  0  0  0  0  0  0  0  0
  -35.4840   20.1100  -16.6610 C   0  0  0  0  0  0  0  0  0  0  0  0
  -32.2210   22.0380  -13.6690 C   0  0  0  0  0  3  0  0  0  0  0  0
  -32.7550   24.1100  -12.4370 C   0  0  0  0  0  0  0  0  0  0  0  0
  -36.1760   21.7690  -15.0330 C   0  0  0  0  0  3  0  0  0  0  0  0
  -36.5010   20.8140  -15.9550 C   0  0  0  0  0  3  0  0  0  0  0  0
  -33.1020   19.8330  -17.2070 C   0  0  0  0  0  2  0  0  0  0  0  0
  -35.3840   24.0070  -13.2810 C   0  0  0  0  0  3  0  0  0  0  0  0
  -33.6860   25.0770  -12.0200 C   0  0  0  0  0  0  0  0  0  0  0  0
  -35.8720   19.2330  -17.7220 C   0  0  0  0  0  3  0  0  0  0  0  0
  -33.4940   19.0180  -18.2240 C   0  0  0  0  0  0  0  0  0  0  0  0
  -34.8720   18.6950  -18.4680 C   0  0  0  0  0  0  0  0  0  0  0  0
  -31.6650   19.9600  -14.7120 C   0  0  0  0  0  1  0  0  0  0  0  0
  -35.0080   25.0460  -12.4260 C   0  0  0  0  0  3  0  0  0  0  0  0
  -31.7010   25.5640  -11.1040 C   0  0  0  0  0  2  0  0  0  0  0  0
  -33.6140   17.6670  -20.0110 C   0  0  0  0  0  2  0  0  0  0  0  0
  1 24  1  0  0  0  0
  2 24  1  0  0  0  0
  3 20  1  0  0  0  0
  4 21  1  0  0  0  0
  5 12  1  0  0  0  0
  6  7  1  0  0  0  0
  6  5  1  0  0  0  0
  7  8  2  0  0  0  0
  8 10  1  0  0  0  0
  8 17  1  0  0  0  0
  9  6  2  0  0  0  0
 10 13  1  0  0  0  0
 11  9  1  0  0  0  0
 11 15  1  0  0  0  0
 12 10  2  0  0  0  0
 13 18  2  0  0  0  0
 13  1  1  0  0  0  0
 14  7  1  0  0  0  0
 15 14  2  0  0  0  0
 16  9  1  0  0  0  0
 17 23  2  0  0  0  0
 18  2  1  0  0  0  0
 19 11  2  0  0  0  0
 20 16  1  0  0  0  0
 21 20  2  0  0  0  0
 21 19  1  0  0  0  0
 22  5  1  0  0  0  0
 23 18  1  0  0  0  0
 25  4  1  0  0  0  0
 25  3  1  0  0  0  0
M  END
>  <MODEL>
6

>  <REMARK>
 VINA RESULT:    -9.577      1.258      7.255
 INTER + INTRA:          -9.577
 INTER:                  -9.577
 INTRA:                   0.000
 UNBOUND:                 0.000
  0 active torsions:
  status: ('A' for Active; 'I' for Inactive)

>  <TORSDO>
F 0

$$$$
./Sanguinarina.pdbqt
 OpenBabel10282519553D

 25 30  0  0  0  0  0  0  0  0999 V2000
  -37.4000   19.7930  -18.8130 O   0  0  0  0  0  0  0  0  0  0  0  0
  -36.1490   18.3590  -20.2130 O   0  0  0  0  0  0  0  0  0  0  0  0
  -33.8250   25.5410  -12.2210 O   0  0  0  0  0  0  0  0  0  0  0  0
  -31.8210   24.7280  -11.2740 O   0  0  0  0  0  0  0  0  0  0  0  0
  -35.7730   21.6030  -15.2470 N   0  0  0  0  0  0  0  0  0  0  0  0
  -34.3820   21.5030  -15.0170 C   0  0  0  0  0  0  0  0  0  0  0  0
  -33.6640   20.5170  -15.7230 C   0  0  0  0  0  0  0  0  0  0  0  0
  -34.2380   19.8770  -16.8850 C   0  0  0  0  0  0  0  0  0  0  0  0
  -33.7000   22.3650  -14.0930 C   0  0  0  0  0  0  0  0  0  0  0  0
  -35.5980   20.1940  -17.1790 C   0  0  0  0  0  0  0  0  0  0  0  0
  -32.4320   21.9480  -13.6200 C   0  0  0  0  0  0  0  0  0  0  0  0
  -36.3460   21.0020  -16.2850 C   0  0  0  0  0  3  0  0  0  0  0  0
  -36.1410   19.6300  -18.3280 C   0  0  0  0  0  0  0  0  0  0  0  0
  -32.3690   20.1630  -15.2600 C   0  0  0  0  0  2  0  0  0  0  0  0
  -31.8030   20.8090  -14.1970 C   0  0  0  0  0  3  0  0  0  0  0  0
  -34.2170   23.6380  -13.7010 C   0  0  0  0  0  3  0  0  0  0  0  0
  -33.5150   19.0170  -17.7260 C   0  0  0  0  0  3  0  0  0  0  0  0
  -35.3890   18.7770  -19.1560 C   0  0  0  0  0  0  0  0  0  0  0  0
  -31.7280   22.6790  -12.6120 C   0  0  0  0  0  3  0  0  0  0  0  0
  -33.5220   24.3280  -12.7570 C   0  0  0  0  0  0  0  0  0  0  0  0
  -32.2940   23.8410  -12.1930 C   0  0  0  0  0  0  0  0  0  0  0  0
  -36.6660   22.2220  -14.2550 C   0  0  0  0  0  1  0  0  0  0  0  0
  -34.0740   18.4530  -18.8750 C   0  0  0  0  0  3  0  0  0  0  0  0
  -37.4390   18.9930  -20.0340 C   0  0  0  0  0  2  0  0  0  0  0  0
  -32.7640   25.8300  -11.2730 C   0  0  0  0  0  2  0  0  0  0  0  0
  1 13  1  0  0  0  0
  2 24  1  0  0  0  0
  2 18  1  0  0  0  0
  3 25  1  0  0  0  0
  4 25  1  0  0  0  0
  5  6  1  0  0  0  0
  5 22  1  0  0  0  0
  6  9  2  0  0  0  0
  7 14  1  0  0  0  0
  7  6  1  0  0  0  0
  8  7  2  0  0  0  0
  9 16  1  0  0  0  0
  9 11  1  0  0  0  0
 10  8  1  0  0  0  0
 10 12  2  0  0  0  0
 11 19  1  0  0  0  0
 12  5  1  0  0  0  0
 13 10  1  0  0  0  0
 14 15  1  0  0  0  0
 15 11  2  0  0  0  0
 16 20  2  0  0  0  0
 17  8  1  0  0  0  0
 18 23  1  0  0  0  0
 18 13  2  0  0  0  0
 19 21  2  0  0  0  0
 20  3  1  0  0  0  0
 20 21  1  0  0  0  0
 21  4  1  0  0  0  0
 23 17  2  0  0  0  0
 24  1  1  0  0  0  0
M  END
>  <MODEL>
7

>  <REMARK>
 VINA RESULT:    -9.417      1.559      3.039
 INTER + INTRA:          -9.417
 INTER:                  -9.417
 INTRA:                   0.000
 UNBOUND:                 0.000
  0 active torsions:
  status: ('A' for Active; 'I' for Inactive)

>  <TORSDO>
F 0

$$$$
./Sanguinarina.pdbqt
 OpenBabel10282519553D

 25 30  0  0  0  0  0  0  0  0999 V2000
  -39.4020   20.9170  -16.9640 O   0  0  0  0  0  0  0  0  0  0  0  0
  -41.2240   21.5200  -15.5860 O   0  0  0  0  0  0  0  0  0  0  0  0
  -30.3300   20.7430  -14.3260 O   0  0  0  0  0  0  0  0  0  0  0  0
  -29.8250   22.3230  -12.6470 O   0  0  0  0  0  0  0  0  0  0  0  0
  -35.2990   21.8040  -15.9560 N   0  0  0  0  0  0  0  0  0  0  0  0
  -35.0150   22.2870  -14.6590 C   0  0  0  0  0  0  0  0  0  0  0  0
  -36.0790   22.8190  -13.9030 C   0  0  0  0  0  0  0  0  0  0  0  0
  -37.4500   22.5620  -14.2790 C   0  0  0  0  0  0  0  0  0  0  0  0
  -33.6890   22.2530  -14.1070 C   0  0  0  0  0  0  0  0  0  0  0  0
  -37.6530   21.8740  -15.5130 C   0  0  0  0  0  0  0  0  0  0  0  0
  -33.4130   23.1040  -13.0100 C   0  0  0  0  0  0  0  0  0  0  0  0
  -36.5480   21.5860  -16.3530 C   0  0  0  0  0  3  0  0  0  0  0  0
  -38.9670   21.5690  -15.8540 C   0  0  0  0  0  0  0  0  0  0  0  0
  -35.7700   23.6190  -12.7700 C   0  0  0  0  0  3  0  0  0  0  0  0
  -34.4750   23.8140  -12.3810 C   0  0  0  0  0  3  0  0  0  0  0  0
  -32.6830   21.3530  -14.5750 C   0  0  0  0  0  2  0  0  0  0  0  0
  -38.5470   22.9170  -13.4790 C   0  0  0  0  0  3  0  0  0  0  0  0
  -40.0460   21.9320  -15.0290 C   0  0  0  0  0  0  0  0  0  0  0  0
  -32.0950   23.2260  -12.4670 C   0  0  0  0  0  3  0  0  0  0  0  0
  -31.4410   21.4710  -14.0310 C   0  0  0  0  0  0  0  0  0  0  0  0
  -31.1380   22.4220  -12.9970 C   0  0  0  0  0  0  0  0  0  0  0  0
  -34.2430   21.6930  -16.9740 C   0  0  0  0  0  1  0  0  0  0  0  0
  -39.8620   22.6090  -13.8360 C   0  0  0  0  0  3  0  0  0  0  0  0
  -40.8540   20.8600  -16.8210 C   0  0  0  0  0  2  0  0  0  0  0  0
  -29.2810   21.2560  -13.4630 C   0  0  0  0  0  2  0  0  0  0  0  0
  1 24  1  0  0  0  0
  1 13  1  0  0  0  0
  2 18  1  0  0  0  0
  3 20  1  0  0  0  0
  3 25  1  0  0  0  0
  5  6  1  0  0  0  0
  6  9  2  0  0  0  0
  6  7  1  0  0  0  0
  7 14  1  0  0  0  0
  8  7  2  0  0  0  0
  8 17  1  0  0  0  0
  9 11  1  0  0  0  0
 10  8  1  0  0  0  0
 11 19  2  0  0  0  0
 11 15  1  0  0  0  0
 12  5  1  0  0  0  0
 12 10  2  0  0  0  0
 13 10  1  0  0  0  0
 13 18  2  0  0  0  0
 14 15  2  0  0  0  0
 16  9  1  0  0  0  0
 16 20  1  0  0  0  0
 18 23  1  0  0  0  0
 20 21  2  0  0  0  0
 21  4  1  0  0  0  0
 21 19  1  0  0  0  0
 22  5  1  0  0  0  0
 23 17  2  0  0  0  0
 24  2  1  0  0  0  0
 25  4  1  0  0  0  0
M  END
>  <MODEL>
8

>  <REMARK>
 VINA RESULT:    -9.303      2.871      4.127
 INTER + INTRA:          -9.303
 INTER:                  -9.303
 INTRA:                   0.000
 UNBOUND:                 0.000
  0 active torsions:
  status: ('A' for Active; 'I' for Inactive)

>  <TORSDO>
F 0

$$$$
./Sanguinarina.pdbqt
 OpenBabel10282519553D

 25 30  0  0  0  0  0  0  0  0999 V2000
  -39.0680   22.6920  -17.3690 O   0  0  0  0  0  0  0  0  0  0  0  0
  -38.8520   21.4330  -19.3570 O   0  0  0  0  0  0  0  0  0  0  0  0
  -32.0250   24.9120  -11.4740 O   0  0  0  0  0  0  0  0  0  0  0  0
  -30.3000   23.3020  -11.4470 O   0  0  0  0  0  0  0  0  0  0  0  0
  -36.0180   22.8020  -14.3160 N   0  0  0  0  0  0  0  0  0  0  0  0
  -34.7570   22.2330  -14.6040 C   0  0  0  0  0  0  0  0  0  0  0  0
  -34.6690   21.3330  -15.6850 C   0  0  0  0  0  0  0  0  0  0  0  0
  -35.7200   21.2640  -16.6740 C   0  0  0  0  0  0  0  0  0  0  0  0
  -33.5870   22.5420  -13.8300 C   0  0  0  0  0  0  0  0  0  0  0  0
  -36.8890   22.0410  -16.4150 C   0  0  0  0  0  0  0  0  0  0  0  0
  -32.4920   21.6480  -13.9110 C   0  0  0  0  0  0  0  0  0  0  0  0
  -37.0220   22.7320  -15.1840 C   0  0  0  0  0  3  0  0  0  0  0  0
  -37.8820   22.0280  -17.3890 C   0  0  0  0  0  0  0  0  0  0  0  0
  -33.5280   20.4920  -15.7740 C   0  0  0  0  0  2  0  0  0  0  0  0
  -32.5060   20.5980  -14.8720 C   0  0  0  0  0  3  0  0  0  0  0  0
  -33.4710   23.7360  -13.0540 C   0  0  0  0  0  3  0  0  0  0  0  0
  -35.6160   20.5180  -17.8580 C   0  0  0  0  0  3  0  0  0  0  0  0
  -37.7460   21.2760  -18.5690 C   0  0  0  0  0  0  0  0  0  0  0  0
  -31.3300   21.8080  -13.0920 C   0  0  0  0  0  3  0  0  0  0  0  0
  -32.3480   23.8790  -12.2970 C   0  0  0  0  0  0  0  0  0  0  0  0
  -31.2900   22.9070  -12.2940 C   0  0  0  0  0  0  0  0  0  0  0  0
  -36.3230   23.3360  -12.9790 C   0  0  0  0  0  1  0  0  0  0  0  0
  -36.6230   20.5100  -18.8270 C   0  0  0  0  0  3  0  0  0  0  0  0
  -39.7180   22.3360  -18.6270 C   0  0  0  0  0  2  0  0  0  0  0  0
  -30.7270   24.5810  -10.9150 C   0  0  0  0  0  2  0  0  0  0  0  0
  2 24  1  0  0  0  0
  2 18  1  0  0  0  0
  3 25  1  0  0  0  0
  4 25  1  0  0  0  0
  5 22  1  0  0  0  0
  6  5  1  0  0  0  0
  6  9  2  0  0  0  0
  7  6  1  0  0  0  0
  8 10  1  0  0  0  0
  8  7  2  0  0  0  0
  9 16  1  0  0  0  0
 10 12  2  0  0  0  0
 11  9  1  0  0  0  0
 11 19  1  0  0  0  0
 12  5  1  0  0  0  0
 13  1  1  0  0  0  0
 13 10  1  0  0  0  0
 14  7  1  0  0  0  0
 14 15  1  0  0  0  0
 15 11  2  0  0  0  0
 16 20  2  0  0  0  0
 17  8  1  0  0  0  0
 18 13  2  0  0  0  0
 19 21  2  0  0  0  0
 20 21  1  0  0  0  0
 20  3  1  0  0  0  0
 21  4  1  0  0  0  0
 23 18  1  0  0  0  0
 23 17  2  0  0  0  0
 24  1  1  0  0  0  0
M  END
>  <MODEL>
9

>  <REMARK>
 VINA RESULT:    -9.021      2.263      3.665
 INTER + INTRA:          -9.021
 INTER:                  -9.021
 INTRA:                   0.000
 UNBOUND:                 0.000
  0 active torsions:
  status: ('A' for Active; 'I' for Inactive)

>  <TORSDO>
F 0

$$$$
./Sanguinarina.pdbqt
 OpenBabel10282519553D

 25 30  0  0  0  0  0  0  0  0999 V2000
  -32.3690   17.6490  -19.4250 O   0  0  0  0  0  0  0  0  0  0  0  0
  -34.1060   16.1590  -20.0140 O   0  0  0  0  0  0  0  0  0  0  0  0
  -32.5980   23.8100  -12.2650 O   0  0  0  0  0  0  0  0  0  0  0  0
  -34.7750   24.5810  -11.7780 O   0  0  0  0  0  0  0  0  0  0  0  0
  -32.9590   21.0270  -16.8030 N   0  0  0  0  0  0  0  0  0  0  0  0
  -34.1830   21.1300  -16.1050 C   0  0  0  0  0  0  0  0  0  0  0  0
  -35.2770   20.3750  -16.5730 C   0  0  0  0  0  0  0  0  0  0  0  0
  -35.0770   19.2790  -17.4930 C   0  0  0  0  0  0  0  0  0  0  0  0
  -34.3350   21.9760  -14.9540 C   0  0  0  0  0  0  0  0  0  0  0  0
  -33.7530   19.1060  -17.9970 C   0  0  0  0  0  0  0  0  0  0  0  0
  -35.6500   22.3370  -14.5730 C   0  0  0  0  0  0  0  0  0  0  0  0
  -32.7460   20.0540  -17.6830 C   0  0  0  0  0  3  0  0  0  0  0  0
  -33.5370   18.0190  -18.8370 C   0  0  0  0  0  0  0  0  0  0  0  0
  -36.5800   20.7220  -16.1240 C   0  0  0  0  0  2  0  0  0  0  0  0
  -36.7640   21.7200  -15.2090 C   0  0  0  0  0  3  0  0  0  0  0  0
  -33.2260   22.3970  -14.1560 C   0  0  0  0  0  3  0  0  0  0  0  0
  -36.0960   18.3870  -17.8610 C   0  0  0  0  0  3  0  0  0  0  0  0
  -34.5760   17.1370  -19.1830 C   0  0  0  0  0  0  0  0  0  0  0  0
  -35.8970   23.2670  -13.5140 C   0  0  0  0  0  3  0  0  0  0  0  0
  -33.4850   23.2640  -13.1400 C   0  0  0  0  0  0  0  0  0  0  0  0
  -34.8120   23.7200  -12.8330 C   0  0  0  0  0  0  0  0  0  0  0  0
  -31.9430   22.0890  -16.7180 C   0  0  0  0  0  1  0  0  0  0  0  0
  -35.8660   17.3010  -18.7100 C   0  0  0  0  0  3  0  0  0  0  0  0
  -32.6970   16.4470  -20.1880 C   0  0  0  0  0  2  0  0  0  0  0  0
  -33.3820   24.6530  -11.3810 C   0  0  0  0  0  2  0  0  0  0  0  0
  1 13  1  0  0  0  0
  2 18  1  0  0  0  0
  3 25  1  0  0  0  0
  4 25  1  0  0  0  0
  5 22  1  0  0  0  0
  5  6  1  0  0  0  0
  6  9  2  0  0  0  0
  7 14  1  0  0  0  0
  7  6  1  0  0  0  0
  8  7  2  0  0  0  0
  9 11  1  0  0  0  0
  9 16  1  0  0  0  0
 10 12  2  0  0  0  0
 10  8  1  0  0  0  0
 11 19  1  0  0  0  0
 12  5  1  0  0  0  0
 13 10  1  0  0  0  0
 14 15  1  0  0  0  0
 15 11  2  0  0  0  0
 16 20  2  0  0  0  0
 17  8  1  0  0  0  0
 18 13  2  0  0  0  0
 18 23  1  0  0  0  0
 19 21  2  0  0  0  0
 20 21  1  0  0  0  0
 20  3  1  0  0  0  0
 21  4  1  0  0  0  0
 23 17  2  0  0  0  0
 24  2  1  0  0  0  0
 24  1  1  0  0  0  0
M  END
>  <MODEL>
10

>  <REMARK>
 VINA RESULT:    -8.482      1.640      2.528
 INTER + INTRA:          -8.482
 INTER:                  -8.482
 INTRA:                   0.000
 UNBOUND:                 0.000
  0 active torsions:
  status: ('A' for Active; 'I' for Inactive)

>  <TORSDO>
F 0

$$$$
./Sanguinarina.pdbqt
 OpenBabel10282519553D

 25 30  0  0  0  0  0  0  0  0999 V2000
  -29.7430   20.9860  -14.0380 O   0  0  0  0  0  0  0  0  0  0  0  0
  -29.4690   22.5980  -12.3320 O   0  0  0  0  0  0  0  0  0  0  0  0
  -37.1180   20.3990  -19.9140 O   0  0  0  0  0  0  0  0  0  0  0  0
  -39.1280   21.1830  -18.9570 O   0  0  0  0  0  0  0  0  0  0  0  0
  -33.5290   20.2330  -15.9710 N   0  0  0  0  0  0  0  0  0  0  0  0
  -34.5990   21.1220  -15.7240 C   0  0  0  0  0  0  0  0  0  0  0  0
  -34.5150   21.9590  -14.5920 C   0  0  0  0  0  0  0  0  0  0  0  0
  -33.2540   22.1640  -13.9180 C   0  0  0  0  0  0  0  0  0  0  0  0
  -35.7500   21.1860  -16.5800 C   0  0  0  0  0  0  0  0  0  0  0  0
  -32.1550   21.3720  -14.3710 C   0  0  0  0  0  0  0  0  0  0  0  0
  -36.9250   21.7770  -16.0580 C   0  0  0  0  0  0  0  0  0  0  0  0
  -32.3620   20.3650  -15.3470 C   0  0  0  0  0  3  0  0  0  0  0  0
  -30.9230   21.6040  -13.7690 C   0  0  0  0  0  0  0  0  0  0  0  0
  -35.7010   22.5880  -14.1280 C   0  0  0  0  0  3  0  0  0  0  0  0
  -36.8820   22.4410  -14.8000 C   0  0  0  0  0  3  0  0  0  0  0  0
  -35.7230   20.7450  -17.9400 C   0  0  0  0  0  2  0  0  0  0  0  0
  -33.0700   23.1100  -12.8990 C   0  0  0  0  0  3  0  0  0  0  0  0
  -30.7690   22.5650  -12.7530 C   0  0  0  0  0  0  0  0  0  0  0  0
  -38.1530   21.7830  -16.7920 C   0  0  0  0  0  3  0  0  0  0  0  0
  -36.8970   20.7790  -18.6280 C   0  0  0  0  0  0  0  0  0  0  0  0
  -38.1160   21.2710  -18.0500 C   0  0  0  0  0  0  0  0  0  0  0  0
  -33.7180   19.0240  -16.7890 C   0  0  0  0  0  1  0  0  0  0  0  0
  -31.8280   23.3300  -12.2990 C   0  0  0  0  0  3  0  0  0  0  0  0
  -28.7790   21.6080  -13.1330 C   0  0  0  0  0  2  0  0  0  0  0  0
  -38.5280   20.6430  -20.1610 C   0  0  0  0  0  2  0  0  0  0  0  0
  1 13  1  0  0  0  0
  1 24  1  0  0  0  0
  3 20  1  0  0  0  0
  4 21  1  0  0  0  0
  5  6  1  0  0  0  0
  5 12  1  0  0  0  0
  6  7  1  0  0  0  0
  7 14  1  0  0  0  0
  7  8  2  0  0  0  0
  8 17  1  0  0  0  0
  9 11  1  0  0  0  0
  9  6  2  0  0  0  0
 10  8  1  0  0  0  0
 10 13  1  0  0  0  0
 11 15  1  0  0  0  0
 12 10  2  0  0  0  0
 13 18  2  0  0  0  0
 15 14  2  0  0  0  0
 16  9  1  0  0  0  0
 17 23  2  0  0  0  0
 18  2  1  0  0  0  0
 18 23  1  0  0  0  0
 19 11  2  0  0  0  0
 20 21  2  0  0  0  0
 20 16  1  0  0  0  0
 21 19  1  0  0  0  0
 22  5  1  0  0  0  0
 24  2  1  0  0  0  0
 25  3  1  0  0  0  0
 25  4  1  0  0  0  0
M  END
>  <MODEL>
11

>  <REMARK>
 VINA RESULT:    -8.449      2.037      7.064
 INTER + INTRA:          -8.449
 INTER:                  -8.449
 INTRA:                   0.000
 UNBOUND:                 0.000
  0 active torsions:
  status: ('A' for Active; 'I' for Inactive)

>  <TORSDO>
F 0

$$$$
./Sanguinarina.pdbqt
 OpenBabel10282519553D

 25 30  0  0  0  0  0  0  0  0999 V2000
  -39.3280   30.7770    4.2630 O   0  0  0  0  0  0  0  0  0  0  0  0
  -38.5950   33.0190    4.1190 O   0  0  0  0  0  0  0  0  0  0  0  0
  -44.6310   26.3040   -2.1520 O   0  0  0  0  0  0  0  0  0  0  0  0
  -46.0820   27.7500   -3.3230 O   0  0  0  0  0  0  0  0  0  0  0  0
  -42.4950   29.1800    1.8020 N   0  0  0  0  0  0  0  0  0  0  0  0
  -42.9720   29.9640    0.7270 C   0  0  0  0  0  0  0  0  0  0  0  0
  -42.6880   31.3440    0.7380 C   0  0  0  0  0  0  0  0  0  0  0  0
  -41.6620   31.8790    1.6050 C   0  0  0  0  0  0  0  0  0  0  0  0
  -43.7310   29.3950   -0.3520 C   0  0  0  0  0  0  0  0  0  0  0  0
  -41.0710   30.9660    2.5290 C   0  0  0  0  0  0  0  0  0  0  0  0
  -44.5030   30.2760   -1.1470 C   0  0  0  0  0  0  0  0  0  0  0  0
  -41.5770   29.6460    2.6430 C   0  0  0  0  0  3  0  0  0  0  0  0
  -40.0420   31.4560    3.3260 C   0  0  0  0  0  0  0  0  0  0  0  0
  -43.4380   32.1960   -0.1160 C   0  0  0  0  0  2  0  0  0  0  0  0
  -44.3670   31.6830   -0.9770 C   0  0  0  0  0  3  0  0  0  0  0  0
  -43.6730   28.0070   -0.6860 C   0  0  0  0  0  3  0  0  0  0  0  0
  -41.2160   33.2080    1.5410 C   0  0  0  0  0  3  0  0  0  0  0  0
  -39.6120   32.7910    3.2350 C   0  0  0  0  0  0  0  0  0  0  0  0
  -45.3800   29.7930   -2.1690 C   0  0  0  0  0  3  0  0  0  0  0  0
  -44.4990   27.5710   -1.6760 C   0  0  0  0  0  0  0  0  0  0  0  0
  -45.3710   28.4550   -2.3990 C   0  0  0  0  0  0  0  0  0  0  0  0
  -43.1210   27.8910    2.1400 C   0  0  0  0  0  1  0  0  0  0  0  0
  -40.1850   33.6880    2.3510 C   0  0  0  0  0  3  0  0  0  0  0  0
  -38.3790   31.7540    4.7900 C   0  0  0  0  0  2  0  0  0  0  0  0
  -45.6290   26.3790   -3.2030 C   0  0  0  0  0  2  0  0  0  0  0  0
  1 24  1  0  0  0  0
  2 24  1  0  0  0  0
  3 20  1  0  0  0  0
  4 25  1  0  0  0  0
  4 21  1  0  0  0  0
  5 22  1  0  0  0  0
  5 12  1  0  0  0  0
  6  7  1  0  0  0  0
  6  5  1  0  0  0  0
  7  8  2  0  0  0  0
  8 10  1  0  0  0  0
  9  6  2  0  0  0  0
 10 12  2  0  0  0  0
 10 13  1  0  0  0  0
 11 15  2  0  0  0  0
 11  9  1  0  0  0  0
 13  1  1  0  0  0  0
 14  7  1  0  0  0  0
 15 14  1  0  0  0  0
 16  9  1  0  0  0  0
 17  8  1  0  0  0  0
 17 23  2  0  0  0  0
 18 13  2  0  0  0  0
 18  2  1  0  0  0  0
 19 11  1  0  0  0  0
 20 16  2  0  0  0  0
 21 19  2  0  0  0  0
 21 20  1  0  0  0  0
 23 18  1  0  0  0  0
 25  3  1  0  0  0  0
M  END
>  <MODEL>
12

>  <REMARK>
 VINA RESULT:    -8.434     17.859     21.128
 INTER + INTRA:          -8.434
 INTER:                  -8.434
 INTRA:                   0.000
 UNBOUND:                 0.000
  0 active torsions:
  status: ('A' for Active; 'I' for Inactive)

>  <TORSDO>
F 0

$$$$
./Sanguinarina.pdbqt
 OpenBabel10282519553D

 25 30  0  0  0  0  0  0  0  0999 V2000
  -42.1210   24.1890    3.1670 O   0  0  0  0  0  0  0  0  0  0  0  0
  -42.0650   26.2740    4.2790 O   0  0  0  0  0  0  0  0  0  0  0  0
  -42.4830   22.9560   -6.1940 O   0  0  0  0  0  0  0  0  0  0  0  0
  -43.5950   24.7090   -7.3150 O   0  0  0  0  0  0  0  0  0  0  0  0
  -43.2540   23.7670   -0.9770 N   0  0  0  0  0  0  0  0  0  0  0  0
  -43.3970   24.9360   -1.7580 C   0  0  0  0  0  0  0  0  0  0  0  0
  -43.5490   26.1660   -1.0860 C   0  0  0  0  0  0  0  0  0  0  0  0
  -43.2180   26.2860    0.3160 C   0  0  0  0  0  0  0  0  0  0  0  0
  -43.3960   24.8980   -3.1940 C   0  0  0  0  0  0  0  0  0  0  0  0
  -42.8740   25.0770    0.9940 C   0  0  0  0  0  0  0  0  0  0  0  0
  -43.9420   26.0090   -3.8800 C   0  0  0  0  0  0  0  0  0  0  0  0
  -42.9840   23.8330    0.3230 C   0  0  0  0  0  3  0  0  0  0  0  0
  -42.4970   25.1900    2.3270 C   0  0  0  0  0  0  0  0  0  0  0  0
  -44.0410   27.2800   -1.8170 C   0  0  0  0  0  2  0  0  0  0  0  0
  -44.2980   27.1820   -3.1560 C   0  0  0  0  0  3  0  0  0  0  0  0
  -42.8070   23.8280   -3.9350 C   0  0  0  0  0  3  0  0  0  0  0  0
  -43.1850   27.5120    0.9970 C   0  0  0  0  0  3  0  0  0  0  0  0
  -42.4670   26.4350    2.9820 C   0  0  0  0  0  0  0  0  0  0  0  0
  -44.0910   26.0140   -5.3030 C   0  0  0  0  0  3  0  0  0  0  0  0
  -42.9410   23.8620   -5.2890 C   0  0  0  0  0  0  0  0  0  0  0  0
  -43.6040   24.9380   -5.9720 C   0  0  0  0  0  0  0  0  0  0  0  0
  -43.5740   22.4410   -1.5280 C   0  0  0  0  0  1  0  0  0  0  0  0
  -42.8080   27.6110    2.3390 C   0  0  0  0  0  3  0  0  0  0  0  0
  -41.8280   24.8540    4.4340 C   0  0  0  0  0  2  0  0  0  0  0  0
  -42.8790   23.4620   -7.4950 C   0  0  0  0  0  2  0  0  0  0  0  0
  1 24  1  0  0  0  0
  2 24  1  0  0  0  0
  3 20  1  0  0  0  0
  4 21  1  0  0  0  0
  5 12  1  0  0  0  0
  6  7  1  0  0  0  0
  6  5  1  0  0  0  0
  7  8  2  0  0  0  0
  8 10  1  0  0  0  0
  8 17  1  0  0  0  0
  9  6  2  0  0  0  0
 10 13  1  0  0  0  0
 11  9  1  0  0  0  0
 11 15  2  0  0  0  0
 12 10  2  0  0  0  0
 13 18  2  0  0  0  0
 13  1  1  0  0  0  0
 14  7  1  0  0  0  0
 15 14  1  0  0  0  0
 16  9  1  0  0  0  0
 17 23  2  0  0  0  0
 18  2  1  0  0  0  0
 19 11  1  0  0  0  0
 20 16  2  0  0  0  0
 21 19  2  0  0  0  0
 21 20  1  0  0  0  0
 22  5  1  0  0  0  0
 23 18  1  0  0  0  0
 25  4  1  0  0  0  0
 25  3  1  0  0  0  0
M  END
>  <MODEL>
13

>  <REMARK>
 VINA RESULT:    -8.223     15.011     18.094
 INTER + INTRA:          -8.223
 INTER:                  -8.223
 INTRA:                   0.000
 UNBOUND:                 0.000
  0 active torsions:
  status: ('A' for Active; 'I' for Inactive)

>  <TORSDO>
F 0

$$$$
./Sanguinarina.pdbqt
 OpenBabel10282519553D

 25 30  0  0  0  0  0  0  0  0999 V2000
  -24.4650    0.1580   18.0140 O   0  0  0  0  0  0  0  0  0  0  0  0
  -25.7450    2.0900   18.4780 O   0  0  0  0  0  0  0  0  0  0  0  0
  -18.0870   -0.6860   11.0940 O   0  0  0  0  0  0  0  0  0  0  0  0
  -18.5800    0.6540    9.2150 O   0  0  0  0  0  0  0  0  0  0  0  0
  -22.3450   -0.4200   14.2980 N   0  0  0  0  0  0  0  0  0  0  0  0
  -22.2390    0.6730   13.4080 C   0  0  0  0  0  0  0  0  0  0  0  0
  -23.1320    1.7500   13.5740 C   0  0  0  0  0  0  0  0  0  0  0  0
  -23.8790    1.9070   14.8010 C   0  0  0  0  0  0  0  0  0  0  0  0
  -21.2640    0.7040   12.3540 C   0  0  0  0  0  0  0  0  0  0  0  0
  -23.7670    0.8480   15.7530 C   0  0  0  0  0  0  0  0  0  0  0  0
  -21.4830    1.6040   11.2830 C   0  0  0  0  0  0  0  0  0  0  0  0
  -23.0500   -0.3290   15.4220 C   0  0  0  0  0  3  0  0  0  0  0  0
  -24.4340    1.0170   16.9610 C   0  0  0  0  0  0  0  0  0  0  0  0
  -23.2850    2.6720   12.5050 C   0  0  0  0  0  2  0  0  0  0  0  0
  -22.5360    2.5580   11.3670 C   0  0  0  0  0  3  0  0  0  0  0  0
  -20.0670   -0.0760   12.3900 C   0  0  0  0  0  3  0  0  0  0  0  0
  -24.6500    3.0420   15.0940 C   0  0  0  0  0  3  0  0  0  0  0  0
  -25.1940    2.1690   17.2290 C   0  0  0  0  0  0  0  0  0  0  0  0
  -20.6310    1.6260   10.1350 C   0  0  0  0  0  3  0  0  0  0  0  0
  -19.2580   -0.0240   11.2960 C   0  0  0  0  0  0  0  0  0  0  0  0
  -19.5500    0.8040   10.1580 C   0  0  0  0  0  0  0  0  0  0  0  0
  -21.8310   -1.7500   13.9350 C   0  0  0  0  0  1  0  0  0  0  0  0
  -25.3190    3.1960   16.3110 C   0  0  0  0  0  3  0  0  0  0  0  0
  -25.2970    0.8210   19.0150 C   0  0  0  0  0  2  0  0  0  0  0  0
  -17.6240   -0.2770    9.7800 C   0  0  0  0  0  2  0  0  0  0  0  0
  1 24  1  0  0  0  0
  2 24  1  0  0  0  0
  3 20  1  0  0  0  0
  4 25  1  0  0  0  0
  4 21  1  0  0  0  0
  5 12  1  0  0  0  0
  6  7  1  0  0  0  0
  6  5  1  0  0  0  0
  7  8  2  0  0  0  0
  8 17  1  0  0  0  0
  8 10  1  0  0  0  0
  9 16  1  0  0  0  0
  9  6  2  0  0  0  0
 10 13  1  0  0  0  0
 11 15  2  0  0  0  0
 11  9  1  0  0  0  0
 12 10  2  0  0  0  0
 13 18  2  0  0  0  0
 13  1  1  0  0  0  0
 14  7  1  0  0  0  0
 15 14  1  0  0  0  0
 17 23  2  0  0  0  0
 18  2  1  0  0  0  0
 19 21  2  0  0  0  0
 19 11  1  0  0  0  0
 20 16  2  0  0  0  0
 21 20  1  0  0  0  0
 22  5  1  0  0  0  0
 23 18  1  0  0  0  0
 25  3  1  0  0  0  0
M  END
>  <MODEL>
14

>  <REMARK>
 VINA RESULT:    -8.134     34.539     37.282
 INTER + INTRA:          -8.134
 INTER:                  -8.134
 INTRA:                   0.000
 UNBOUND:                 0.000
  0 active torsions:
  status: ('A' for Active; 'I' for Inactive)

>  <TORSDO>
F 0

$$$$
./Sanguinarina.pdbqt
 OpenBabel10282519553D

 25 30  0  0  0  0  0  0  0  0999 V2000
  -34.3800   24.2180  -11.5450 O   0  0  0  0  0  0  0  0  0  0  0  0
  -32.2470   23.9920  -10.5530 O   0  0  0  0  0  0  0  0  0  0  0  0
  -37.7920   18.8500  -18.5310 O   0  0  0  0  0  0  0  0  0  0  0  0
  -36.1120   18.0230  -19.9670 O   0  0  0  0  0  0  0  0  0  0  0  0
  -35.4250   22.3830  -15.3100 N   0  0  0  0  0  0  0  0  0  0  0  0
  -34.5320   21.4430  -15.8710 C   0  0  0  0  0  0  0  0  0  0  0  0
  -33.2020   21.4340  -15.4040 C   0  0  0  0  0  0  0  0  0  0  0  0
  -32.8500   22.0970  -14.1690 C   0  0  0  0  0  0  0  0  0  0  0  0
  -34.9400   20.5190  -16.8910 C   0  0  0  0  0  0  0  0  0  0  0  0
  -33.8780   22.8640  -13.5430 C   0  0  0  0  0  0  0  0  0  0  0  0
  -33.9270   19.9130  -17.6730 C   0  0  0  0  0  0  0  0  0  0  0  0
  -35.1260   23.0400  -14.1940 C   0  0  0  0  0  3  0  0  0  0  0  0
  -33.5670   23.4570  -12.3250 C   0  0  0  0  0  0  0  0  0  0  0  0
  -32.2170   20.7650  -16.1790 C   0  0  0  0  0  2  0  0  0  0  0  0
  -32.5600   20.0890  -17.3160 C   0  0  0  0  0  3  0  0  0  0  0  0
  -36.3060   20.1440  -17.0890 C   0  0  0  0  0  3  0  0  0  0  0  0
  -31.5880   21.9820  -13.5660 C   0  0  0  0  0  3  0  0  0  0  0  0
  -32.2950   23.3180  -11.7410 C   0  0  0  0  0  0  0  0  0  0  0  0
  -34.2390   19.0700  -18.7850 C   0  0  0  0  0  3  0  0  0  0  0  0
  -36.5790   19.3240  -18.1400 C   0  0  0  0  0  0  0  0  0  0  0  0
  -35.5540   18.8070  -19.0030 C   0  0  0  0  0  0  0  0  0  0  0  0
  -36.6380   22.8040  -16.0300 C   0  0  0  0  0  1  0  0  0  0  0  0
  -31.2870   22.5870  -12.3430 C   0  0  0  0  0  3  0  0  0  0  0  0
  -33.5620   24.5760  -10.3890 C   0  0  0  0  0  2  0  0  0  0  0  0
  -37.5350   18.0160  -19.6920 C   0  0  0  0  0  2  0  0  0  0  0  0
  1 24  1  0  0  0  0
  2 24  1  0  0  0  0
  3 20  1  0  0  0  0
  4 25  1  0  0  0  0
  4 21  1  0  0  0  0
  5 12  1  0  0  0  0
  6  7  1  0  0  0  0
  6  5  1  0  0  0  0
  7  8  2  0  0  0  0
  8 17  1  0  0  0  0
  8 10  1  0  0  0  0
  9  6  2  0  0  0  0
 10 13  1  0  0  0  0
 11 15  2  0  0  0  0
 11  9  1  0  0  0  0
 12 10  2  0  0  0  0
 13 18  2  0  0  0  0
 13  1  1  0  0  0  0
 14  7  1  0  0  0  0
 15 14  1  0  0  0  0
 16  9  1  0  0  0  0
 17 23  2  0  0  0  0
 18  2  1  0  0  0  0
 19 11  1  0  0  0  0
 20 16  2  0  0  0  0
 21 19  2  0  0  0  0
 21 20  1  0  0  0  0
 22  5  1  0  0  0  0
 23 18  1  0  0  0  0
 25  3  1  0  0  0  0
M  END
>  <MODEL>
15

>  <REMARK>
 VINA RESULT:    -8.099      1.514      7.792
 INTER + INTRA:          -8.099
 INTER:                  -8.099
 INTRA:                   0.000
 UNBOUND:                 0.000
  0 active torsions:
  status: ('A' for Active; 'I' for Inactive)

>  <TORSDO>
F 0

$$$$
./Sanguinarina.pdbqt
 OpenBabel10282519553D

 25 30  0  0  0  0  0  0  0  0999 V2000
   -9.7150   38.6840   12.1800 O   0  0  0  0  0  0  0  0  0  0  0  0
   -9.7290   36.4740   13.0180 O   0  0  0  0  0  0  0  0  0  0  0  0
   -5.4190   41.5390    4.2640 O   0  0  0  0  0  0  0  0  0  0  0  0
   -3.5000   40.2690    3.7430 O   0  0  0  0  0  0  0  0  0  0  0  0
   -6.9560   40.0290    9.1450 N   0  0  0  0  0  0  0  0  0  0  0  0
   -6.1690   39.0640    8.4760 C   0  0  0  0  0  0  0  0  0  0  0  0
   -6.0270   37.7960    9.0750 C   0  0  0  0  0  0  0  0  0  0  0  0
   -6.9220   37.3740   10.1280 C   0  0  0  0  0  0  0  0  0  0  0  0
   -5.5180   39.3450    7.2270 C   0  0  0  0  0  0  0  0  0  0  0  0
   -7.8420   38.3520   10.6110 C   0  0  0  0  0  0  0  0  0  0  0  0
   -4.4470   38.5030    6.8410 C   0  0  0  0  0  0  0  0  0  0  0  0
   -7.7670   39.6880   10.1410 C   0  0  0  0  0  3  0  0  0  0  0  0
   -8.7470   37.9390   11.5830 C   0  0  0  0  0  0  0  0  0  0  0  0
   -4.9810   36.9480    8.6240 C   0  0  0  0  0  3  0  0  0  0  0  0
   -4.1720   37.3220    7.5880 C   0  0  0  0  0  3  0  0  0  0  0  0
   -5.9570   40.3810    6.3470 C   0  0  0  0  0  2  0  0  0  0  0  0
   -6.9430   36.0690   10.6450 C   0  0  0  0  0  3  0  0  0  0  0  0
   -8.7480   36.6230   12.0760 C   0  0  0  0  0  0  0  0  0  0  0  0
   -3.6640   38.7700    5.6740 C   0  0  0  0  0  3  0  0  0  0  0  0
   -5.2100   40.6060    5.2310 C   0  0  0  0  0  0  0  0  0  0  0  0
   -4.0510   39.8220    4.9060 C   0  0  0  0  0  0  0  0  0  0  0  0
   -6.7780   41.4660    8.8870 C   0  0  0  0  0  1  0  0  0  0  0  0
   -7.8540   35.6680   11.6250 C   0  0  0  0  0  3  0  0  0  0  0  0
  -10.3740   37.7670   13.1080 C   0  0  0  0  0  2  0  0  0  0  0  0
   -4.3510   41.3540    3.2980 C   0  0  0  0  0  2  0  0  0  0  0  0
  1 24  1  0  0  0  0
  2 24  1  0  0  0  0
  3 20  1  0  0  0  0
  4 21  1  0  0  0  0
  5 12  1  0  0  0  0
  6  7  1  0  0  0  0
  6  5  1  0  0  0  0
  7  8  2  0  0  0  0
  8 10  1  0  0  0  0
  8 17  1  0  0  0  0
  9  6  2  0  0  0  0
 10 13  1  0  0  0  0
 11  9  1  0  0  0  0
 11 15  1  0  0  0  0
 12 10  2  0  0  0  0
 13 18  2  0  0  0  0
 13  1  1  0  0  0  0
 14  7  1  0  0  0  0
 15 14  2  0  0  0  0
 16  9  1  0  0  0  0
 17 23  2  0  0  0  0
 18  2  1  0  0  0  0
 19 11  2  0  0  0  0
 20 16  1  0  0  0  0
 21 20  2  0  0  0  0
 21 19  1  0  0  0  0
 22  5  1  0  0  0  0
 23 18  1  0  0  0  0
 25  4  1  0  0  0  0
 25  3  1  0  0  0  0
M  END
>  <MODEL>
16

>  <REMARK>
 VINA RESULT:    -8.043     39.685     40.177
 INTER + INTRA:          -8.043
 INTER:                  -8.043
 INTRA:                   0.000
 UNBOUND:                 0.000
  0 active torsions:
  status: ('A' for Active; 'I' for Inactive)

>  <TORSDO>
F 0

$$$$
./Sanguinarina.pdbqt
 OpenBabel10282519553D

 25 30  0  0  0  0  0  0  0  0999 V2000
   -3.5400   39.7270    4.1840 O   0  0  0  0  0  0  0  0  0  0  0  0
   -4.4030   41.6510    3.1160 O   0  0  0  0  0  0  0  0  0  0  0  0
   -7.8260   34.8630   11.0580 O   0  0  0  0  0  0  0  0  0  0  0  0
   -9.2250   36.2040   12.4050 O   0  0  0  0  0  0  0  0  0  0  0  0
   -5.1110   38.2020    7.9050 N   0  0  0  0  0  0  0  0  0  0  0  0
   -6.3170   38.7480    8.3990 C   0  0  0  0  0  0  0  0  0  0  0  0
   -6.7370   39.9930    7.8900 C   0  0  0  0  0  0  0  0  0  0  0  0
   -6.1680   40.5220    6.6720 C   0  0  0  0  0  0  0  0  0  0  0  0
   -7.1050   38.0760    9.3950 C   0  0  0  0  0  0  0  0  0  0  0  0
   -5.0780   39.7910    6.1100 C   0  0  0  0  0  0  0  0  0  0  0  0
   -8.0440   38.8480   10.1200 C   0  0  0  0  0  0  0  0  0  0  0  0
   -4.5350   38.6810    6.8070 C   0  0  0  0  0  3  0  0  0  0  0  0
   -4.5620   40.2590    4.9070 C   0  0  0  0  0  0  0  0  0  0  0  0
   -7.7270   40.7170    8.6070 C   0  0  0  0  0  3  0  0  0  0  0  0
   -8.3080   40.1910    9.7270 C   0  0  0  0  0  3  0  0  0  0  0  0
   -7.0220   36.6670    9.6210 C   0  0  0  0  0  2  0  0  0  0  0  0
   -6.6600   41.6650    6.0250 C   0  0  0  0  0  3  0  0  0  0  0  0
   -5.0800   41.4040    4.2780 C   0  0  0  0  0  0  0  0  0  0  0  0
   -8.7910   38.2950   11.2070 C   0  0  0  0  0  3  0  0  0  0  0  0
   -7.7570   36.1570   10.6470 C   0  0  0  0  0  0  0  0  0  0  0  0
   -8.6200   36.9710   11.4560 C   0  0  0  0  0  0  0  0  0  0  0  0
   -4.3520   37.2070    8.6790 C   0  0  0  0  0  1  0  0  0  0  0  0
   -6.1290   42.1270    4.8180 C   0  0  0  0  0  3  0  0  0  0  0  0
   -3.4150   40.5970    3.0170 C   0  0  0  0  0  2  0  0  0  0  0  0
   -8.7530   34.8520   12.1750 C   0  0  0  0  0  2  0  0  0  0  0  0
  1 13  1  0  0  0  0
  2 18  1  0  0  0  0
  3 25  1  0  0  0  0
  5  6  1  0  0  0  0
  5 22  1  0  0  0  0
  6  9  2  0  0  0  0
  7  6  1  0  0  0  0
  7 14  1  0  0  0  0
  8  7  2  0  0  0  0
  9 16  1  0  0  0  0
  9 11  1  0  0  0  0
 10  8  1  0  0  0  0
 10 12  2  0  0  0  0
 11 19  2  0  0  0  0
 12  5  1  0  0  0  0
 13 10  1  0  0  0  0
 14 15  2  0  0  0  0
 15 11  1  0  0  0  0
 16 20  1  0  0  0  0
 17  8  1  0  0  0  0
 18 23  1  0  0  0  0
 18 13  2  0  0  0  0
 19 21  1  0  0  0  0
 20  3  1  0  0  0  0
 20 21  2  0  0  0  0
 21  4  1  0  0  0  0
 23 17  2  0  0  0  0
 24  2  1  0  0  0  0
 24  1  1  0  0  0  0
 25  4  1  0  0  0  0
M  END
>  <MODEL>
17

>  <REMARK>
 VINA RESULT:    -7.652     39.178     39.746
 INTER + INTRA:          -7.652
 INTER:                  -7.652
 INTRA:                   0.000
 UNBOUND:                 0.000
  0 active torsions:
  status: ('A' for Active; 'I' for Inactive)

>  <TORSDO>
F 0

$$$$
./Sanguinarina.pdbqt
 OpenBabel10282519553D

 25 30  0  0  0  0  0  0  0  0999 V2000
   -1.7490   32.9670    8.3650 O   0  0  0  0  0  0  0  0  0  0  0  0
   -1.1420   33.3990    6.1220 O   0  0  0  0  0  0  0  0  0  0  0  0
   -9.2430   36.5960   12.8310 O   0  0  0  0  0  0  0  0  0  0  0  0
   -9.8510   38.7310   12.0320 O   0  0  0  0  0  0  0  0  0  0  0  0
   -4.5740   35.3970   10.5440 N   0  0  0  0  0  0  0  0  0  0  0  0
   -5.3210   36.3620    9.8310 C   0  0  0  0  0  0  0  0  0  0  0  0
   -4.8520   36.7570    8.5620 C   0  0  0  0  0  0  0  0  0  0  0  0
   -3.8660   35.9660    7.8620 C   0  0  0  0  0  0  0  0  0  0  0  0
   -6.5220   36.9420   10.3650 C   0  0  0  0  0  0  0  0  0  0  0  0
   -3.3050   34.8670    8.5810 C   0  0  0  0  0  0  0  0  0  0  0  0
   -6.9690   38.1610    9.8000 C   0  0  0  0  0  0  0  0  0  0  0  0
   -3.6340   34.6720    9.9460 C   0  0  0  0  0  3  0  0  0  0  0  0
   -2.3990   34.0650    7.8960 C   0  0  0  0  0  0  0  0  0  0  0  0
   -5.3660   37.9520    7.9920 C   0  0  0  0  0  2  0  0  0  0  0  0
   -6.3410   38.6690    8.6270 C   0  0  0  0  0  3  0  0  0  0  0  0
   -7.3010   36.3040   11.3780 C   0  0  0  0  0  3  0  0  0  0  0  0
   -3.4860   36.2090    6.5330 C   0  0  0  0  0  3  0  0  0  0  0  0
   -2.0420   34.3290    6.5610 C   0  0  0  0  0  0  0  0  0  0  0  0
   -8.0860   38.8730   10.3390 C   0  0  0  0  0  3  0  0  0  0  0  0
   -8.3720   36.9890   11.8630 C   0  0  0  0  0  0  0  0  0  0  0  0
   -8.7520   38.2820   11.3650 C   0  0  0  0  0  0  0  0  0  0  0  0
   -4.6810   35.2810   12.0070 C   0  0  0  0  0  1  0  0  0  0  0  0
   -2.5700   35.3970    5.8580 C   0  0  0  0  0  3  0  0  0  0  0  0
   -0.9330   32.5070    7.2440 C   0  0  0  0  0  2  0  0  0  0  0  0
  -10.2010   37.6790   12.9650 C   0  0  0  0  0  2  0  0  0  0  0  0
  2 18  1  0  0  0  0
  2 24  1  0  0  0  0
  3 25  1  0  0  0  0
  4 25  1  0  0  0  0
  5 22  1  0  0  0  0
  6  9  2  0  0  0  0
  6  5  1  0  0  0  0
  7  6  1  0  0  0  0
  8  7  2  0  0  0  0
  8 10  1  0  0  0  0
  9 16  1  0  0  0  0
 10 12  2  0  0  0  0
 11 19  1  0  0  0  0
 11  9  1  0  0  0  0
 12  5  1  0  0  0  0
 13  1  1  0  0  0  0
 13 10  1  0  0  0  0
 14  7  1  0  0  0  0
 14 15  1  0  0  0  0
 15 11  2  0  0  0  0
 16 20  2  0  0  0  0
 17  8  1  0  0  0  0
 18 13  2  0  0  0  0
 19 21  2  0  0  0  0
 20  3  1  0  0  0  0
 21 20  1  0  0  0  0
 21  4  1  0  0  0  0
 23 17  2  0  0  0  0
 23 18  1  0  0  0  0
 24  1  1  0  0  0  0
M  END
>  <MODEL>
18

>  <REMARK>
 VINA RESULT:    -7.607     39.815     40.256
 INTER + INTRA:          -7.607
 INTER:                  -7.607
 INTRA:                   0.000
 UNBOUND:                 0.000
  0 active torsions:
  status: ('A' for Active; 'I' for Inactive)

>  <TORSDO>
F 0

$$$$
./Sanguinarina.pdbqt
 OpenBabel10282519553D

 25 30  0  0  0  0  0  0  0  0999 V2000
  -43.5290   23.8430    2.5270 O   0  0  0  0  0  0  0  0  0  0  0  0
  -42.9560   22.3880    4.2990 O   0  0  0  0  0  0  0  0  0  0  0  0
  -39.9880   32.4950    1.1540 O   0  0  0  0  0  0  0  0  0  0  0  0
  -39.3690   33.5700    3.1620 O   0  0  0  0  0  0  0  0  0  0  0  0
  -42.5990   28.0590    2.5570 N   0  0  0  0  0  0  0  0  0  0  0  0
  -41.7400   28.5500    3.5650 C   0  0  0  0  0  0  0  0  0  0  0  0
  -41.5430   27.7560    4.7120 C   0  0  0  0  0  0  0  0  0  0  0  0
  -41.9070   26.3580    4.7120 C   0  0  0  0  0  0  0  0  0  0  0  0
  -41.0790   29.8210    3.4490 C   0  0  0  0  0  0  0  0  0  0  0  0
  -42.5930   25.8790    3.5550 C   0  0  0  0  0  0  0  0  0  0  0  0
  -40.5850   30.4140    4.6360 C   0  0  0  0  0  0  0  0  0  0  0  0
  -42.9850   26.7870    2.5390 C   0  0  0  0  0  3  0  0  0  0  0  0
  -42.8950   24.5220    3.5200 C   0  0  0  0  0  0  0  0  0  0  0  0
  -40.9870   28.3650    5.8690 C   0  0  0  0  0  3  0  0  0  0  0  0
  -40.5890   29.6720    5.8510 C   0  0  0  0  0  3  0  0  0  0  0  0
  -40.8470   30.4560    2.1900 C   0  0  0  0  0  2  0  0  0  0  0  0
  -41.5830   25.4780    5.7560 C   0  0  0  0  0  3  0  0  0  0  0  0
  -42.5510   23.6630    4.5780 C   0  0  0  0  0  0  0  0  0  0  0  0
  -40.0170   31.7270    4.6390 C   0  0  0  0  0  3  0  0  0  0  0  0
  -40.2860   31.6960    2.2140 C   0  0  0  0  0  0  0  0  0  0  0  0
  -39.8950   32.3430    3.4350 C   0  0  0  0  0  0  0  0  0  0  0  0
  -43.2420   28.9680    1.5950 C   0  0  0  0  0  1  0  0  0  0  0  0
  -41.8960   24.1170    5.7090 C   0  0  0  0  0  3  0  0  0  0  0  0
  -43.5790   22.4600    2.9940 C   0  0  0  0  0  2  0  0  0  0  0  0
  -39.4010   33.6970    1.7180 C   0  0  0  0  0  2  0  0  0  0  0  0
  1 24  1  0  0  0  0
  1 13  1  0  0  0  0
  2 18  1  0  0  0  0
  3 25  1  0  0  0  0
  3 20  1  0  0  0  0
  4 21  1  0  0  0  0
  5  6  1  0  0  0  0
  6  7  1  0  0  0  0
  7 14  1  0  0  0  0
  8  7  2  0  0  0  0
  8 17  1  0  0  0  0
  9  6  2  0  0  0  0
  9 11  1  0  0  0  0
 10  8  1  0  0  0  0
 11 19  2  0  0  0  0
 11 15  1  0  0  0  0
 12  5  1  0  0  0  0
 12 10  2  0  0  0  0
 13 10  1  0  0  0  0
 13 18  2  0  0  0  0
 15 14  2  0  0  0  0
 16 20  1  0  0  0  0
 16  9  1  0  0  0  0
 18 23  1  0  0  0  0
 20 21  2  0  0  0  0
 21 19  1  0  0  0  0
 22  5  1  0  0  0  0
 23 17  2  0  0  0  0
 24  2  1  0  0  0  0
 25  4  1  0  0  0  0
M  END
>  <MODEL>
19

>  <REMARK>
 VINA RESULT:    -7.587     20.296     21.405
 INTER + INTRA:          -7.587
 INTER:                  -7.587
 INTRA:                   0.000
 UNBOUND:                 0.000
  0 active torsions:
  status: ('A' for Active; 'I' for Inactive)

>  <TORSDO>
F 0

$$$$
./Sanguinarina.pdbqt
 OpenBabel10282519553D

 25 30  0  0  0  0  0  0  0  0999 V2000
  -39.1400   31.3300    3.8390 O   0  0  0  0  0  0  0  0  0  0  0  0
  -39.3900   33.4630    2.8520 O   0  0  0  0  0  0  0  0  0  0  0  0
  -43.1680   23.3490    0.7820 O   0  0  0  0  0  0  0  0  0  0  0  0
  -45.2390   23.7100   -0.2900 O   0  0  0  0  0  0  0  0  0  0  0  0
  -41.7560   28.0120    2.9560 N   0  0  0  0  0  0  0  0  0  0  0  0
  -42.6680   28.1410    1.8840 C   0  0  0  0  0  0  0  0  0  0  0  0
  -42.9580   29.4390    1.4160 C   0  0  0  0  0  0  0  0  0  0  0  0
  -42.1070   30.5540    1.7600 C   0  0  0  0  0  0  0  0  0  0  0  0
  -43.2980   27.0020    1.2790 C   0  0  0  0  0  0  0  0  0  0  0  0
  -41.0640   30.2920    2.6990 C   0  0  0  0  0  0  0  0  0  0  0  0
  -44.4720   27.2260    0.5200 C   0  0  0  0  0  0  0  0  0  0  0  0
  -40.9790   29.0240    3.3270 C   0  0  0  0  0  3  0  0  0  0  0  0
  -40.2030   31.3440    2.9910 C   0  0  0  0  0  0  0  0  0  0  0  0
  -44.1090   29.6230    0.6040 C   0  0  0  0  0  2  0  0  0  0  0  0
  -44.8810   28.5590    0.2300 C   0  0  0  0  0  3  0  0  0  0  0  0
  -42.7470   25.6850    1.3570 C   0  0  0  0  0  3  0  0  0  0  0  0
  -42.2420   31.8300    1.1910 C   0  0  0  0  0  3  0  0  0  0  0  0
  -40.3590   32.6100    2.4000 C   0  0  0  0  0  0  0  0  0  0  0  0
  -45.2340   26.1450   -0.0250 C   0  0  0  0  0  3  0  0  0  0  0  0
  -43.4770   24.6720    0.8140 C   0  0  0  0  0  0  0  0  0  0  0  0
  -44.7300   24.8950    0.1470 C   0  0  0  0  0  0  0  0  0  0  0  0
  -41.7570   26.8170    3.8150 C   0  0  0  0  0  1  0  0  0  0  0  0
  -41.3720   32.8800    1.4980 C   0  0  0  0  0  3  0  0  0  0  0  0
  -38.5870   32.6800    3.7680 C   0  0  0  0  0  2  0  0  0  0  0  0
  -44.2660   22.7030    0.0850 C   0  0  0  0  0  2  0  0  0  0  0  0
  2 24  1  0  0  0  0
  3 20  1  0  0  0  0
  4 25  1  0  0  0  0
  4 21  1  0  0  0  0
  5 12  1  0  0  0  0
  5 22  1  0  0  0  0
  6  5  1  0  0  0  0
  7  8  2  0  0  0  0
  7  6  1  0  0  0  0
  8 10  1  0  0  0  0
  9 16  1  0  0  0  0
  9  6  2  0  0  0  0
 10 13  1  0  0  0  0
 10 12  2  0  0  0  0
 11  9  1  0  0  0  0
 13  1  1  0  0  0  0
 14  7  1  0  0  0  0
 15 11  2  0  0  0  0
 15 14  1  0  0  0  0
 17 23  2  0  0  0  0
 17  8  1  0  0  0  0
 18  2  1  0  0  0  0
 18 13  2  0  0  0  0
 19 21  2  0  0  0  0
 19 11  1  0  0  0  0
 20 16  2  0  0  0  0
 21 20  1  0  0  0  0
 23 18  1  0  0  0  0
 24  1  1  0  0  0  0
 25  3  1  0  0  0  0
M  END
>  <MODEL>
20

>  <REMARK>
 VINA RESULT:    -7.473     18.705     21.063
 INTER + INTRA:          -7.473
 INTER:                  -7.473
 INTRA:                   0.000
 UNBOUND:                 0.000
  0 active torsions:
  status: ('A' for Active; 'I' for Inactive)

>  <TORSDO>
F 0

$$$$
