./Sarcofina.pdbqt
 OpenBabel10282519553D

 23 25  0  0  1  0  0  0  0  0999 V2000
  -34.6340   24.3630  -19.0200 O   0  0  0  0  0  0  0  0  0  0  0  0
  -35.6160   23.5100  -11.9480 O   0  0  0  0  0  0  0  0  0  0  0  0
  -34.7370   24.3350  -10.0660 O   0  0  0  0  0  0  0  0  0  0  0  0
  -34.5790   22.9370  -19.1600 C   0  0  2  0  0  0  0  0  0  0  0  0
  -35.1540   23.5870  -17.9350 C   0  0  2  0  0  3  0  0  0  0  0  0
  -33.1800   22.3660  -19.1080 C   0  0  0  0  0  2  0  0  0  0  0  0
  -36.6440   23.6690  -17.7250 C   0  0  0  0  0  2  0  0  0  0  0  0
  -35.4750   22.3710  -20.2250 C   0  0  0  0  0  1  0  0  0  0  0  0
  -33.1670   20.9510  -18.5040 C   0  0  0  0  0  2  0  0  0  0  0  0
  -37.0030   24.2240  -16.3400 C   0  0  0  0  0  2  0  0  0  0  0  0
  -36.5340   23.3250  -15.2320 C   0  0  0  0  0  0  0  0  0  0  0  0
  -33.4480   21.0160  -17.0390 C   0  0  0  0  0  3  0  0  0  0  0  0
  -35.1300   22.9610  -13.1950 C   0  0  1  0  0  3  0  0  0  0  0  0
  -35.6780   23.7820  -14.3070 C   0  0  0  0  0  3  0  0  0  0  0  0
  -32.5130   21.0640  -16.0810 C   0  0  0  0  0  0  0  0  0  0  0  0
  -33.6130   23.0670  -13.1000 C   0  0  0  0  0  0  0  0  0  0  0  0
  -32.9100   21.2200  -14.6410 C   0  0  0  0  0  2  0  0  0  0  0  0
  -32.7530   22.7000  -14.2400 C   0  0  0  0  0  2  0  0  0  0  0  0
  -37.0780   21.9360  -15.2350 C   0  0  0  0  0  1  0  0  0  0  0  0
  -33.2860   23.5890  -11.9050 C   0  0  0  0  0  0  0  0  0  0  0  0
  -31.0470   20.9980  -16.3460 C   0  0  0  0  0  1  0  0  0  0  0  0
  -34.5420   23.8760  -11.1540 C   0  0  0  0  0  0  0  0  0  0  0  0
  -31.9800   23.8980  -11.3080 C   0  0  0  0  0  1  0  0  0  0  0  0
  1  5  1  0  0  0  0
  2 22  1  0  0  0  0
  4  8  1  6  0  0  0
  4  6  1  0  0  0  0
  4  1  1  0  0  0  0
  4  5  1  0  0  0  0
  5  7  1  6  0  0  0
  6  9  1  0  0  0  0
  7 10  1  0  0  0  0
  9 12  1  0  0  0  0
 10 11  1  0  0  0  0
 11 14  2  0  0  0  0
 12 15  2  0  0  0  0
 13 14  1  6  0  0  0
 13 16  1  0  0  0  0
 13  2  1  0  0  0  0
 15 17  1  0  0  0  0
 16 20  2  0  0  0  0
 17 18  1  0  0  0  0
 18 16  1  0  0  0  0
 19 11  1  0  0  0  0
 20 23  1  0  0  0  0
 20 22  1  0  0  0  0
 21 15  1  0  0  0  0
 22  3  2  0  0  0  0
M  END
>  <MODEL>
1

>  <REMARK>
 VINA RESULT:    -8.027      0.000      0.000
 INTER + INTRA:          -8.027
 INTER:                  -8.027
 INTRA:                   0.000
 UNBOUND:                 0.000
  0 active torsions:
  status: ('A' for Active; 'I' for Inactive)

>  <TORSDO>
F 0

$$$$
./Sarcofina.pdbqt
 OpenBabel10282519553D

 23 25  0  0  1  0  0  0  0  0999 V2000
  -35.8600   24.0530  -18.7390 O   0  0  0  0  0  0  0  0  0  0  0  0
  -34.9520   23.9610  -11.6070 O   0  0  0  0  0  0  0  0  0  0  0  0
  -33.5130   24.8270  -10.1330 O   0  0  0  0  0  0  0  0  0  0  0  0
  -35.9910   22.6250  -18.7170 C   0  0  2  0  0  0  0  0  0  0  0  0
  -36.1400   23.4490  -17.4710 C   0  0  2  0  0  3  0  0  0  0  0  0
  -34.6960   21.8840  -18.9640 C   0  0  0  0  0  2  0  0  0  0  0  0
  -37.4990   23.7420  -16.8910 C   0  0  0  0  0  2  0  0  0  0  0  0
  -37.1960   22.0880  -19.4350 C   0  0  0  0  0  1  0  0  0  0  0  0
  -34.6620   20.5380  -18.2190 C   0  0  0  0  0  2  0  0  0  0  0  0
  -37.4070   24.4580  -15.5370 C   0  0  0  0  0  2  0  0  0  0  0  0
  -36.7470   23.6080  -14.4910 C   0  0  0  0  0  0  0  0  0  0  0  0
  -34.5230   20.7680  -16.7510 C   0  0  0  0  0  3  0  0  0  0  0  0
  -34.8840   23.2460  -12.8620 C   0  0  1  0  0  3  0  0  0  0  0  0
  -35.6290   24.0290  -13.8830 C   0  0  0  0  0  3  0  0  0  0  0  0
  -33.3620   20.7780  -16.0830 C   0  0  0  0  0  0  0  0  0  0  0  0
  -33.3960   23.1620  -13.1810 C   0  0  0  0  0  0  0  0  0  0  0  0
  -33.3320   21.1110  -14.6190 C   0  0  0  0  0  2  0  0  0  0  0  0
  -32.9220   22.5870  -14.4530 C   0  0  0  0  0  2  0  0  0  0  0  0
  -37.4090   22.3060  -14.1850 C   0  0  0  0  0  1  0  0  0  0  0  0
  -32.7030   23.7410  -12.1840 C   0  0  0  0  0  0  0  0  0  0  0  0
  -32.0390   20.5000  -16.7120 C   0  0  0  0  0  1  0  0  0  0  0  0
  -33.6700   24.2530  -11.1710 C   0  0  0  0  0  0  0  0  0  0  0  0
  -31.2590   23.9290  -11.9900 C   0  0  0  0  0  1  0  0  0  0  0  0
  1  4  1  0  0  0  0
  1  5  1  0  0  0  0
  2 22  1  0  0  0  0
  4  8  1  6  0  0  0
  4  5  1  0  0  0  0
  5  7  1  6  0  0  0
  6  4  1  0  0  0  0
  6  9  1  0  0  0  0
  7 10  1  0  0  0  0
  9 12  1  0  0  0  0
 10 11  1  0  0  0  0
 11 19  1  0  0  0  0
 11 14  2  0  0  0  0
 12 15  2  0  0  0  0
 13 14  1  6  0  0  0
 13  2  1  0  0  0  0
 15 17  1  0  0  0  0
 16 13  1  0  0  0  0
 16 20  2  0  0  0  0
 17 18  1  0  0  0  0
 18 16  1  0  0  0  0
 20 23  1  0  0  0  0
 20 22  1  0  0  0  0
 21 15  1  0  0  0  0
 22  3  2  0  0  0  0
M  END
>  <MODEL>
2

>  <REMARK>
 VINA RESULT:    -7.883      1.021      1.090
 INTER + INTRA:          -7.883
 INTER:                  -7.883
 INTRA:                   0.000
 UNBOUND:                 0.000
  0 active torsions:
  status: ('A' for Active; 'I' for Inactive)

>  <TORSDO>
F 0

$$$$
./Sarcofina.pdbqt
 OpenBabel10282519553D

 23 25  0  0  1  0  0  0  0  0999 V2000
  -37.4120   18.9340  -16.8780 O   0  0  0  0  0  0  0  0  0  0  0  0
  -30.7450   20.8520  -14.9880 O   0  0  0  0  0  0  0  0  0  0  0  0
  -29.6110   21.1580  -13.0860 O   0  0  0  0  0  0  0  0  0  0  0  0
  -37.4590   20.0610  -17.7630 C   0  0  2  0  0  0  0  0  0  0  0  0
  -36.1600   19.5360  -17.2250 C   0  0  2  0  0  3  0  0  0  0  0  0
  -38.0680   21.3010  -17.1490 C   0  0  0  0  0  2  0  0  0  0  0  0
  -35.2450   18.7000  -18.0820 C   0  0  0  0  0  2  0  0  0  0  0  0
  -37.8960   19.7460  -19.1660 C   0  0  0  0  0  1  0  0  0  0  0  0
  -37.4520   22.5840  -17.7330 C   0  0  0  0  0  2  0  0  0  0  0  0
  -33.9070   18.4110  -17.3870 C   0  0  0  0  0  2  0  0  0  0  0  0
  -33.1180   19.6630  -17.1360 C   0  0  0  0  0  0  0  0  0  0  0  0
  -36.0500   22.7470  -17.2470 C   0  0  0  0  0  3  0  0  0  0  0  0
  -32.0260   21.2420  -15.5330 C   0  0  1  0  0  3  0  0  0  0  0  0
  -32.7750   20.0070  -15.8870 C   0  0  0  0  0  3  0  0  0  0  0  0
  -35.6880   23.4680  -16.1770 C   0  0  0  0  0  0  0  0  0  0  0  0
  -32.7050   22.0200  -14.4130 C   0  0  0  0  0  0  0  0  0  0  0  0
  -34.2560   23.4880  -15.7250 C   0  0  0  0  0  2  0  0  0  0  0  0
  -34.0920   22.5000  -14.5530 C   0  0  0  0  0  2  0  0  0  0  0  0
  -32.7530   20.4640  -18.3400 C   0  0  0  0  0  1  0  0  0  0  0  0
  -31.8700   22.0890  -13.3610 C   0  0  0  0  0  0  0  0  0  0  0  0
  -36.6400   24.2640  -15.3500 C   0  0  0  0  0  1  0  0  0  0  0  0
  -30.6170   21.3560  -13.7030 C   0  0  0  0  0  0  0  0  0  0  0  0
  -32.0230   22.7160  -12.0420 C   0  0  0  0  0  1  0  0  0  0  0  0
  2 22  1  0  0  0  0
  4  8  1  6  0  0  0
  4  5  1  0  0  0  0
  4  6  1  0  0  0  0
  4  1  1  0  0  0  0
  5  7  1  6  0  0  0
  5  1  1  0  0  0  0
  7 10  1  0  0  0  0
  9 12  1  0  0  0  0
  9  6  1  0  0  0  0
 10 11  1  0  0  0  0
 11 14  2  0  0  0  0
 12 15  2  0  0  0  0
 13 14  1  1  0  0  0
 13  2  1  0  0  0  0
 13 16  1  0  0  0  0
 15 17  1  0  0  0  0
 15 21  1  0  0  0  0
 16 20  2  0  0  0  0
 17 18  1  0  0  0  0
 18 16  1  0  0  0  0
 19 11  1  0  0  0  0
 20 23  1  0  0  0  0
 22 20  1  0  0  0  0
 22  3  2  0  0  0  0
M  END
>  <MODEL>
3

>  <REMARK>
 VINA RESULT:    -7.880      2.996      4.758
 INTER + INTRA:          -7.880
 INTER:                  -7.880
 INTRA:                   0.000
 UNBOUND:                 0.000
  0 active torsions:
  status: ('A' for Active; 'I' for Inactive)

>  <TORSDO>
F 0

$$$$
./Sarcofina.pdbqt
 OpenBabel10282519553D

 23 25  0  0  1  0  0  0  0  0999 V2000
  -39.8530   31.7090    2.1270 O   0  0  0  0  0  0  0  0  0  0  0  0
  -44.3220   26.4640    0.0740 O   0  0  0  0  0  0  0  0  0  0  0  0
  -44.5180   25.0720   -1.6640 O   0  0  0  0  0  0  0  0  0  0  0  0
  -40.9900   32.5420    2.3880 C   0  0  2  0  0  0  0  0  0  0  0  0
  -41.1200   31.0540    2.2510 C   0  0  2  0  0  3  0  0  0  0  0  0
  -41.3830   33.4300    1.2290 C   0  0  0  0  0  2  0  0  0  0  0  0
  -41.2870   30.1730    3.4620 C   0  0  0  0  0  2  0  0  0  0  0  0
  -40.9980   33.1960    3.7410 C   0  0  0  0  0  1  0  0  0  0  0  0
  -42.8990   33.6900    1.2020 C   0  0  0  0  0  2  0  0  0  0  0  0
  -41.5620   28.7120    3.0810 C   0  0  0  0  0  2  0  0  0  0  0  0
  -42.8600   28.5550    2.3430 C   0  0  0  0  0  0  0  0  0  0  0  0
  -43.6250   32.4490    0.8020 C   0  0  0  0  0  3  0  0  0  0  0  0
  -44.1030   27.8780    0.2810 C   0  0  1  0  0  3  0  0  0  0  0  0
  -42.8760   28.0410    1.1050 C   0  0  0  0  0  3  0  0  0  0  0  0
  -44.0000   32.1480   -0.4480 C   0  0  0  0  0  0  0  0  0  0  0  0
  -43.9300   28.4530   -1.1200 C   0  0  0  0  0  0  0  0  0  0  0  0
  -44.6460   30.8270   -0.7500 C   0  0  0  0  0  2  0  0  0  0  0  0
  -43.5800   29.8710   -1.3200 C   0  0  0  0  0  2  0  0  0  0  0  0
  -44.0880   28.9940    3.0670 C   0  0  0  0  0  1  0  0  0  0  0  0
  -44.0760   27.4640   -2.0190 C   0  0  0  0  0  0  0  0  0  0  0  0
  -43.7920   33.0500   -1.6170 C   0  0  0  0  0  1  0  0  0  0  0  0
  -44.3290   26.1910   -1.2850 C   0  0  0  0  0  0  0  0  0  0  0  0
  -44.0100   27.4720   -3.4860 C   0  0  0  0  0  1  0  0  0  0  0  0
  1  5  1  0  0  0  0
  1  4  1  0  0  0  0
  2 13  1  0  0  0  0
  3 22  2  0  0  0  0
  4  8  1  1  0  0  0
  5  4  1  0  0  0  0
  5  7  1  1  0  0  0
  6  4  1  0  0  0  0
  9  6  1  0  0  0  0
 10  7  1  0  0  0  0
 11 19  1  0  0  0  0
 11 10  1  0  0  0  0
 12  9  1  0  0  0  0
 13 14  1  1  0  0  0
 14 11  2  0  0  0  0
 15 12  2  0  0  0  0
 16 13  1  0  0  0  0
 17 15  1  0  0  0  0
 18 16  1  0  0  0  0
 18 17  1  0  0  0  0
 20 22  1  0  0  0  0
 20 16  2  0  0  0  0
 21 15  1  0  0  0  0
 22  2  1  0  0  0  0
 23 20  1  0  0  0  0
M  END
>  <MODEL>
4

>  <REMARK>
 VINA RESULT:    -7.710     16.521     20.416
 INTER + INTRA:          -7.710
 INTER:                  -7.710
 INTRA:                   0.000
 UNBOUND:                 0.000
  0 active torsions:
  status: ('A' for Active; 'I' for Inactive)

>  <TORSDO>
F 0

$$$$
./Sarcofina.pdbqt
 OpenBabel10282519553D

 23 25  0  0  1  0  0  0  0  0999 V2000
  -38.5480   19.9120  -15.1360 O   0  0  0  0  0  0  0  0  0  0  0  0
  -31.7090   21.2560  -16.8980 O   0  0  0  0  0  0  0  0  0  0  0  0
  -29.6850   20.6890  -16.1380 O   0  0  0  0  0  0  0  0  0  0  0  0
  -38.8170   21.3190  -15.2020 C   0  0  2  0  0  0  0  0  0  0  0  0
  -37.5940   20.7200  -15.8330 C   0  0  2  0  0  3  0  0  0  0  0  0
  -38.6910   22.0340  -13.8750 C   0  0  0  0  0  2  0  0  0  0  0  0
  -37.5140   20.5030  -17.3220 C   0  0  0  0  0  2  0  0  0  0  0  0
  -40.0080   21.6980  -16.0360 C   0  0  0  0  0  1  0  0  0  0  0  0
  -38.2250   23.4880  -14.0560 C   0  0  0  0  0  2  0  0  0  0  0  0
  -36.1210   20.0340  -17.7640 C   0  0  0  0  0  2  0  0  0  0  0  0
  -35.0650   21.0670  -17.4950 C   0  0  0  0  0  0  0  0  0  0  0  0
  -36.7920   23.5190  -14.4740 C   0  0  0  0  0  3  0  0  0  0  0  0
  -32.9510   21.7450  -16.3430 C   0  0  1  0  0  3  0  0  0  0  0  0
  -34.0270   20.7800  -16.6970 C   0  0  0  0  0  3  0  0  0  0  0  0
  -35.7520   23.6490  -13.6400 C   0  0  0  0  0  0  0  0  0  0  0  0
  -32.7090   21.8030  -14.8400 C   0  0  0  0  0  0  0  0  0  0  0  0
  -34.3460   23.5760  -14.1630 C   0  0  0  0  0  2  0  0  0  0  0  0
  -33.7950   22.1590  -13.9090 C   0  0  0  0  0  2  0  0  0  0  0  0
  -35.2490   22.3870  -18.1650 C   0  0  0  0  0  1  0  0  0  0  0  0
  -31.4450   21.4210  -14.5870 C   0  0  0  0  0  0  0  0  0  0  0  0
  -35.8870   23.8420  -12.1680 C   0  0  0  0  0  1  0  0  0  0  0  0
  -30.7880   21.0710  -15.8790 C   0  0  0  0  0  0  0  0  0  0  0  0
  -30.7050   21.2990  -13.3240 C   0  0  0  0  0  1  0  0  0  0  0  0
  2 13  1  0  0  0  0
  2 22  1  0  0  0  0
  3 22  2  0  0  0  0
  4  8  1  6  0  0  0
  4  1  1  0  0  0  0
  4  6  1  0  0  0  0
  5  7  1  6  0  0  0
  5  4  1  0  0  0  0
  5  1  1  0  0  0  0
  9  6  1  0  0  0  0
 10 11  1  0  0  0  0
 10  7  1  0  0  0  0
 11 14  2  0  0  0  0
 12  9  1  0  0  0  0
 12 15  2  0  0  0  0
 13 14  1  1  0  0  0
 13 16  1  0  0  0  0
 15 21  1  0  0  0  0
 16 20  2  0  0  0  0
 16 18  1  0  0  0  0
 17 18  1  0  0  0  0
 17 15  1  0  0  0  0
 19 11  1  0  0  0  0
 20 23  1  0  0  0  0
 22 20  1  0  0  0  0
M  END
>  <MODEL>
5

>  <REMARK>
 VINA RESULT:    -7.662      2.712      5.300
 INTER + INTRA:          -7.662
 INTER:                  -7.662
 INTRA:                   0.000
 UNBOUND:                 0.000
  0 active torsions:
  status: ('A' for Active; 'I' for Inactive)

>  <TORSDO>
F 0

$$$$
./Sarcofina.pdbqt
 OpenBabel10282519553D

 23 25  0  0  1  0  0  0  0  0999 V2000
  -44.4840   29.8110   -2.0280 O   0  0  0  0  0  0  0  0  0  0  0  0
  -40.5380   33.6480    2.5990 O   0  0  0  0  0  0  0  0  0  0  0  0
  -38.4290   33.6460    3.3390 O   0  0  0  0  0  0  0  0  0  0  0  0
  -45.4970   29.6850   -1.0220 C   0  0  2  0  0  0  0  0  0  0  0  0
  -44.4220   30.7270   -0.9290 C   0  0  2  0  0  3  0  0  0  0  0  0
  -45.3840   28.4290   -0.1880 C   0  0  0  0  0  2  0  0  0  0  0  0
  -44.7060   32.1690   -1.2610 C   0  0  0  0  0  2  0  0  0  0  0  0
  -46.8850   30.0460   -1.4710 C   0  0  0  0  0  1  0  0  0  0  0  0
  -45.8960   28.6510    1.2460 C   0  0  0  0  0  2  0  0  0  0  0  0
  -43.5130   33.0810   -0.9430 C   0  0  0  0  0  2  0  0  0  0  0  0
  -43.1950   33.1070    0.5240 C   0  0  0  0  0  0  0  0  0  0  0  0
  -44.9450   29.5180    2.0010 C   0  0  0  0  0  3  0  0  0  0  0  0
  -41.5910   32.6780    2.3940 C   0  0  1  0  0  3  0  0  0  0  0  0
  -41.9880   32.7220    0.9610 C   0  0  0  0  0  3  0  0  0  0  0  0
  -43.9580   29.0700    2.7880 C   0  0  0  0  0  0  0  0  0  0  0  0
  -40.9660   31.3410    2.7730 C   0  0  0  0  0  0  0  0  0  0  0  0
  -43.0020   30.0350    3.4290 C   0  0  0  0  0  2  0  0  0  0  0  0
  -41.7070   30.0790    2.5940 C   0  0  0  0  0  2  0  0  0  0  0  0
  -44.2840   33.5820    1.4260 C   0  0  0  0  0  1  0  0  0  0  0  0
  -39.7030   31.5500    3.1830 C   0  0  0  0  0  0  0  0  0  0  0  0
  -43.7080   27.6270    3.0670 C   0  0  0  0  0  1  0  0  0  0  0  0
  -39.4090   33.0080    3.0840 C   0  0  0  0  0  0  0  0  0  0  0  0
  -38.6710   30.6170    3.6550 C   0  0  0  0  0  1  0  0  0  0  0  0
  1  4  1  0  0  0  0
  1  5  1  0  0  0  0
  2 22  1  0  0  0  0
  4  8  1  6  0  0  0
  4  5  1  0  0  0  0
  4  6  1  0  0  0  0
  5  7  1  6  0  0  0
  6  9  1  0  0  0  0
  7 10  1  0  0  0  0
  9 12  1  0  0  0  0
 10 11  1  0  0  0  0
 11 14  2  0  0  0  0
 11 19  1  0  0  0  0
 12 15  2  0  0  0  0
 13 14  1  6  0  0  0
 13  2  1  0  0  0  0
 13 16  1  0  0  0  0
 15 21  1  0  0  0  0
 15 17  1  0  0  0  0
 16 20  2  0  0  0  0
 18 16  1  0  0  0  0
 18 17  1  0  0  0  0
 20 23  1  0  0  0  0
 22 20  1  0  0  0  0
 22  3  2  0  0  0  0
M  END
>  <MODEL>
6

>  <REMARK>
 VINA RESULT:    -7.639     19.467     20.804
 INTER + INTRA:          -7.639
 INTER:                  -7.639
 INTRA:                   0.000
 UNBOUND:                 0.000
  0 active torsions:
  status: ('A' for Active; 'I' for Inactive)

>  <TORSDO>
F 0

$$$$
./Sarcofina.pdbqt
 OpenBabel10282519553D

 23 25  0  0  1  0  0  0  0  0999 V2000
  -45.1370   28.2670    1.5030 O   0  0  0  0  0  0  0  0  0  0  0  0
  -40.1410   33.4370    1.5980 O   0  0  0  0  0  0  0  0  0  0  0  0
  -38.0200   33.6460    2.2730 O   0  0  0  0  0  0  0  0  0  0  0  0
  -46.0690   29.1910    2.0810 C   0  0  2  0  0  0  0  0  0  0  0  0
  -44.8040   29.6580    1.4220 C   0  0  2  0  0  3  0  0  0  0  0  0
  -46.1400   29.1320    3.5900 C   0  0  0  0  0  2  0  0  0  0  0  0
  -44.8220   30.2570    0.0400 C   0  0  0  0  0  2  0  0  0  0  0  0
  -47.3900   29.2870    1.3690 C   0  0  0  0  0  1  0  0  0  0  0  0
  -46.4780   30.5050    4.1970 C   0  0  0  0  0  2  0  0  0  0  0  0
  -43.4500   30.8100   -0.3680 C   0  0  0  0  0  2  0  0  0  0  0  0
  -43.0140   31.9470    0.5100 C   0  0  0  0  0  0  0  0  0  0  0  0
  -45.3150   31.4290    4.0540 C   0  0  0  0  0  3  0  0  0  0  0  0
  -41.3790   32.9170    2.1340 C   0  0  1  0  0  3  0  0  0  0  0  0
  -41.8760   31.8610    1.2120 C   0  0  0  0  0  3  0  0  0  0  0  0
  -44.3760   31.6290    4.9870 C   0  0  0  0  0  0  0  0  0  0  0  0
  -41.0030   32.3520    3.4990 C   0  0  0  0  0  0  0  0  0  0  0  0
  -43.1970   32.5150    4.7000 C   0  0  0  0  0  2  0  0  0  0  0  0
  -41.9920   31.6310    4.3210 C   0  0  0  0  0  2  0  0  0  0  0  0
  -43.9090   33.1400    0.5360 C   0  0  0  0  0  1  0  0  0  0  0  0
  -39.6940   32.5700    3.7160 C   0  0  0  0  0  0  0  0  0  0  0  0
  -44.3950   30.9930    6.3360 C   0  0  0  0  0  1  0  0  0  0  0  0
  -39.1250   33.2600    2.5240 C   0  0  0  0  0  0  0  0  0  0  0  0
  -38.8330   32.2340    4.8580 C   0  0  0  0  0  1  0  0  0  0  0  0
  1  4  1  0  0  0  0
  2 13  1  0  0  0  0
  2 22  1  0  0  0  0
  3 22  2  0  0  0  0
  4  8  1  6  0  0  0
  4  6  1  0  0  0  0
  5  7  1  6  0  0  0
  5  1  1  0  0  0  0
  5  4  1  0  0  0  0
  6  9  1  0  0  0  0
 10  7  1  0  0  0  0
 10 11  1  0  0  0  0
 11 19  1  0  0  0  0
 11 14  2  0  0  0  0
 12  9  1  0  0  0  0
 12 15  2  0  0  0  0
 13 14  1  6  0  0  0
 13 16  1  0  0  0  0
 15 21  1  0  0  0  0
 16 20  2  0  0  0  0
 16 18  1  0  0  0  0
 17 15  1  0  0  0  0
 18 17  1  0  0  0  0
 20 23  1  0  0  0  0
 22 20  1  0  0  0  0
M  END
>  <MODEL>
7

>  <REMARK>
 VINA RESULT:    -7.493     19.744     22.282
 INTER + INTRA:          -7.493
 INTER:                  -7.493
 INTRA:                   0.000
 UNBOUND:                 0.000
  0 active torsions:
  status: ('A' for Active; 'I' for Inactive)

>  <TORSDO>
F 0

$$$$
./Sarcofina.pdbqt
 OpenBabel10282519553D

 23 25  0  0  1  0  0  0  0  0999 V2000
  -39.4430   30.8410    3.1330 O   0  0  0  0  0  0  0  0  0  0  0  0
  -45.8910   31.2930    6.2820 O   0  0  0  0  0  0  0  0  0  0  0  0
  -47.8060   30.1410    6.2550 O   0  0  0  0  0  0  0  0  0  0  0  0
  -39.5450   32.2270    2.7800 C   0  0  2  0  0  0  0  0  0  0  0  0
  -40.4140   31.6190    3.8420 C   0  0  2  0  0  3  0  0  0  0  0  0
  -40.1200   32.4720    1.4030 C   0  0  0  0  0  2  0  0  0  0  0  0
  -40.1300   31.8480    5.3040 C   0  0  0  0  0  2  0  0  0  0  0  0
  -38.3510   33.0640    3.1460 C   0  0  0  0  0  1  0  0  0  0  0  0
  -40.9040   33.7940    1.3430 C   0  0  0  0  0  2  0  0  0  0  0  0
  -41.2320   31.2710    6.2040 C   0  0  0  0  0  2  0  0  0  0  0  0
  -42.5530   31.9490    5.9850 C   0  0  0  0  0  0  0  0  0  0  0  0
  -42.1790   33.6690    2.1090 C   0  0  0  0  0  3  0  0  0  0  0  0
  -44.9590   31.8250    5.3130 C   0  0  1  0  0  3  0  0  0  0  0  0
  -43.6190   31.2400    5.5890 C   0  0  0  0  0  3  0  0  0  0  0  0
  -43.3630   33.3380    1.5790 C   0  0  0  0  0  0  0  0  0  0  0  0
  -45.5080   31.3810    3.9630 C   0  0  0  0  0  0  0  0  0  0  0  0
  -44.5650   33.1520    2.4610 C   0  0  0  0  0  2  0  0  0  0  0  0
  -44.7650   31.6460    2.7170 C   0  0  0  0  0  2  0  0  0  0  0  0
  -42.5900   33.4190    6.2380 C   0  0  0  0  0  1  0  0  0  0  0  0
  -46.6520   30.7020    4.1580 C   0  0  0  0  0  0  0  0  0  0  0  0
  -43.5860   33.1030    0.1230 C   0  0  0  0  0  1  0  0  0  0  0  0
  -46.9170   30.6350    5.6240 C   0  0  0  0  0  0  0  0  0  0  0  0
  -47.5740   30.0650    3.2090 C   0  0  0  0  0  1  0  0  0  0  0  0
  1  5  1  0  0  0  0
  4  1  1  0  0  0  0
  4  8  1  1  0  0  0
  4  5  1  0  0  0  0
  5  7  1  1  0  0  0
  6  4  1  0  0  0  0
  7 10  1  0  0  0  0
  9  6  1  0  0  0  0
  9 12  1  0  0  0  0
 11 10  1  0  0  0  0
 11 19  1  0  0  0  0
 13 14  1  1  0  0  0
 13  2  1  0  0  0  0
 14 11  2  0  0  0  0
 15 12  2  0  0  0  0
 15 17  1  0  0  0  0
 16 20  2  0  0  0  0
 16 13  1  0  0  0  0
 17 18  1  0  0  0  0
 18 16  1  0  0  0  0
 20 22  1  0  0  0  0
 21 15  1  0  0  0  0
 22  3  2  0  0  0  0
 22  2  1  0  0  0  0
 23 20  1  0  0  0  0
M  END
>  <MODEL>
8

>  <REMARK>
 VINA RESULT:    -7.395     20.555     23.541
 INTER + INTRA:          -7.395
 INTER:                  -7.395
 INTRA:                   0.000
 UNBOUND:                 0.000
  0 active torsions:
  status: ('A' for Active; 'I' for Inactive)

>  <TORSDO>
F 0

$$$$
./Sarcofina.pdbqt
 OpenBabel10282519553D

 23 25  0  0  1  0  0  0  0  0999 V2000
  -33.6010   43.3390   -2.3460 O   0  0  0  0  0  0  0  0  0  0  0  0
  -35.5000   47.6960   -7.7420 O   0  0  0  0  0  0  0  0  0  0  0  0
  -35.3730   47.6830   -9.9730 O   0  0  0  0  0  0  0  0  0  0  0  0
  -32.9830   44.4560   -1.6940 C   0  0  2  0  0  0  0  0  0  0  0  0
  -33.9810   44.6440   -2.7980 C   0  0  2  0  0  3  0  0  0  0  0  0
  -31.5090   44.6070   -1.9940 C   0  0  0  0  0  2  0  0  0  0  0  0
  -35.4020   45.0520   -2.5020 C   0  0  0  0  0  2  0  0  0  0  0  0
  -33.3780   44.6480   -0.2560 C   0  0  0  0  0  1  0  0  0  0  0  0
  -31.0730   46.0820   -1.9700 C   0  0  0  0  0  2  0  0  0  0  0  0
  -36.1980   45.3410   -3.7820 C   0  0  0  0  0  2  0  0  0  0  0  0
  -35.6410   46.5090   -4.5440 C   0  0  0  0  0  0  0  0  0  0  0  0
  -31.6280   46.8010   -3.1540 C   0  0  0  0  0  3  0  0  0  0  0  0
  -34.6160   47.4360   -6.6270 C   0  0  1  0  0  3  0  0  0  0  0  0
  -35.2140   46.3520   -5.8040 C   0  0  0  0  0  3  0  0  0  0  0  0
  -30.9800   46.9840   -4.3120 C   0  0  0  0  0  0  0  0  0  0  0  0
  -33.3010   47.0080   -7.2670 C   0  0  0  0  0  0  0  0  0  0  0  0
  -31.6710   47.6440   -5.4720 C   0  0  0  0  0  2  0  0  0  0  0  0
  -32.1670   46.5530   -6.4400 C   0  0  0  0  0  2  0  0  0  0  0  0
  -35.6050   47.8120   -3.8190 C   0  0  0  0  0  1  0  0  0  0  0  0
  -33.4280   47.0600   -8.6040 C   0  0  0  0  0  0  0  0  0  0  0  0
  -29.5780   46.5410   -4.5600 C   0  0  0  0  0  1  0  0  0  0  0  0
  -34.8160   47.4970   -8.9300 C   0  0  0  0  0  0  0  0  0  0  0  0
  -32.4760   46.7560   -9.6800 C   0  0  0  0  0  1  0  0  0  0  0  0
  1  4  1  0  0  0  0
  2 13  1  0  0  0  0
  3 22  2  0  0  0  0
  4  8  1  1  0  0  0
  5  7  1  1  0  0  0
  5  1  1  0  0  0  0
  5  4  1  0  0  0  0
  6  9  1  0  0  0  0
  6  4  1  0  0  0  0
 10  7  1  0  0  0  0
 11 19  1  0  0  0  0
 11 10  1  0  0  0  0
 12  9  1  0  0  0  0
 13 14  1  1  0  0  0
 14 11  2  0  0  0  0
 15 12  2  0  0  0  0
 16 13  1  0  0  0  0
 16 18  1  0  0  0  0
 17 15  1  0  0  0  0
 18 17  1  0  0  0  0
 20 16  2  0  0  0  0
 21 15  1  0  0  0  0
 22 20  1  0  0  0  0
 22  2  1  0  0  0  0
 23 20  1  0  0  0  0
M  END
>  <MODEL>
9

>  <REMARK>
 VINA RESULT:    -7.282     24.723     26.329
 INTER + INTRA:          -7.282
 INTER:                  -7.282
 INTRA:                   0.000
 UNBOUND:                 0.000
  0 active torsions:
  status: ('A' for Active; 'I' for Inactive)

>  <TORSDO>
F 0

$$$$
./Sarcofina.pdbqt
 OpenBabel10282519553D

 23 25  0  0  1  0  0  0  0  0999 V2000
   -4.4560   34.1210    6.0280 O   0  0  0  0  0  0  0  0  0  0  0  0
   -8.1280   38.1380   10.7270 O   0  0  0  0  0  0  0  0  0  0  0  0
   -9.8030   39.6160   10.6530 O   0  0  0  0  0  0  0  0  0  0  0  0
   -3.2360   34.5910    6.6160 C   0  0  2  0  0  0  0  0  0  0  0  0
   -4.5520   34.7160    7.3270 C   0  0  2  0  0  3  0  0  0  0  0  0
   -2.6480   35.8030    5.9290 C   0  0  0  0  0  2  0  0  0  0  0  0
   -4.9200   33.7810    8.4500 C   0  0  0  0  0  2  0  0  0  0  0  0
   -2.2570   33.5140    6.9890 C   0  0  0  0  0  1  0  0  0  0  0  0
   -1.8860   36.7020    6.9190 C   0  0  0  0  0  2  0  0  0  0  0  0
   -6.2320   34.1900    9.1350 C   0  0  0  0  0  2  0  0  0  0  0  0
   -6.1270   35.5300    9.8040 C   0  0  0  0  0  0  0  0  0  0  0  0
   -2.8480   37.3930    7.8280 C   0  0  0  0  0  3  0  0  0  0  0  0
   -6.8890   37.9020   10.0190 C   0  0  1  0  0  3  0  0  0  0  0  0
   -6.9390   36.5320    9.4420 C   0  0  0  0  0  3  0  0  0  0  0  0
   -3.3470   38.6190    7.6270 C   0  0  0  0  0  0  0  0  0  0  0  0
   -6.8490   38.9760    8.9380 C   0  0  0  0  0  0  0  0  0  0  0  0
   -4.3800   39.1800    8.5630 C   0  0  0  0  0  2  0  0  0  0  0  0
   -5.7730   38.9990    7.9300 C   0  0  0  0  0  2  0  0  0  0  0  0
   -5.0890   35.6560   10.8680 C   0  0  0  0  0  1  0  0  0  0  0  0
   -7.9390   39.7550    9.0560 C   0  0  0  0  0  0  0  0  0  0  0  0
   -2.9620   39.4970    6.4850 C   0  0  0  0  0  1  0  0  0  0  0  0
   -8.7650   39.2440   10.1880 C   0  0  0  0  0  0  0  0  0  0  0  0
   -8.3850   40.9200    8.2810 C   0  0  0  0  0  1  0  0  0  0  0  0
  1  4  1  0  0  0  0
  1  5  1  0  0  0  0
  4  8  1  1  0  0  0
  4  5  1  0  0  0  0
  5  7  1  1  0  0  0
  6  4  1  0  0  0  0
  6  9  1  0  0  0  0
  7 10  1  0  0  0  0
  9 12  1  0  0  0  0
 10 11  1  0  0  0  0
 11 19  1  0  0  0  0
 13 14  1  6  0  0  0
 13  2  1  0  0  0  0
 14 11  2  0  0  0  0
 15 12  2  0  0  0  0
 15 17  1  0  0  0  0
 16 20  2  0  0  0  0
 16 13  1  0  0  0  0
 18 17  1  0  0  0  0
 18 16  1  0  0  0  0
 20 22  1  0  0  0  0
 21 15  1  0  0  0  0
 22  3  2  0  0  0  0
 22  2  1  0  0  0  0
 23 20  1  0  0  0  0
M  END
>  <MODEL>
10

>  <REMARK>
 VINA RESULT:    -7.200     39.120     40.324
 INTER + INTRA:          -7.200
 INTER:                  -7.200
 INTRA:                   0.000
 UNBOUND:                 0.000
  0 active torsions:
  status: ('A' for Active; 'I' for Inactive)

>  <TORSDO>
F 0

$$$$
./Sarcofina.pdbqt
 OpenBabel10282519553D

 23 25  0  0  1  0  0  0  0  0999 V2000
  -35.6830   23.1390  -19.7490 O   0  0  0  0  0  0  0  0  0  0  0  0
  -33.0190   22.4470  -13.1060 O   0  0  0  0  0  0  0  0  0  0  0  0
  -31.0190   22.6190  -12.1230 O   0  0  0  0  0  0  0  0  0  0  0  0
  -36.3510   21.8810  -19.5860 C   0  0  2  0  0  0  0  0  0  0  0  0
  -35.8270   22.6520  -18.4100 C   0  0  2  0  0  3  0  0  0  0  0  0
  -35.5670   20.6960  -20.1020 C   0  0  0  0  0  2  0  0  0  0  0  0
  -36.7550   23.4410  -17.5220 C   0  0  0  0  0  2  0  0  0  0  0  0
  -37.8140   21.8920  -19.9260 C   0  0  0  0  0  1  0  0  0  0  0  0
  -35.8650   19.4220  -19.2920 C   0  0  0  0  0  2  0  0  0  0  0  0
  -36.0330   24.0150  -16.2960 C   0  0  0  0  0  2  0  0  0  0  0  0
  -35.5060   22.9360  -15.3940 C   0  0  0  0  0  0  0  0  0  0  0  0
  -35.2610   19.5270  -17.9310 C   0  0  0  0  0  3  0  0  0  0  0  0
  -33.5730   21.8080  -14.2790 C   0  0  1  0  0  3  0  0  0  0  0  0
  -34.1950   22.8580  -15.1290 C   0  0  0  0  0  3  0  0  0  0  0  0
  -34.0570   19.0520  -17.5880 C   0  0  0  0  0  0  0  0  0  0  0  0
  -32.3800   21.1510  -14.9630 C   0  0  0  0  0  0  0  0  0  0  0  0
  -33.5100   19.2940  -16.2100 C   0  0  0  0  0  2  0  0  0  0  0  0
  -32.5270   20.4800  -16.2680 C   0  0  0  0  0  2  0  0  0  0  0  0
  -36.5170   21.9950  -14.8310 C   0  0  0  0  0  1  0  0  0  0  0  0
  -31.2770   21.3720  -14.2250 C   0  0  0  0  0  0  0  0  0  0  0  0
  -33.1680   18.2930  -18.5140 C   0  0  0  0  0  1  0  0  0  0  0  0
  -31.6590   22.1900  -13.0390 C   0  0  0  0  0  0  0  0  0  0  0  0
  -29.8810   20.9640  -14.4250 C   0  0  0  0  0  1  0  0  0  0  0  0
  1  4  1  0  0  0  0
  1  5  1  0  0  0  0
  2 22  1  0  0  0  0
  4  8  1  6  0  0  0
  4  5  1  0  0  0  0
  5  7  1  1  0  0  0
  6  4  1  0  0  0  0
  6  9  1  0  0  0  0
  7 10  1  0  0  0  0
  9 12  1  0  0  0  0
 10 11  1  0  0  0  0
 11 14  2  0  0  0  0
 11 19  1  0  0  0  0
 12 15  2  0  0  0  0
 13 14  1  6  0  0  0
 13  2  1  0  0  0  0
 15 17  1  0  0  0  0
 16 13  1  0  0  0  0
 16 20  2  0  0  0  0
 18 17  1  0  0  0  0
 18 16  1  0  0  0  0
 20 22  1  0  0  0  0
 21 15  1  0  0  0  0
 22  3  2  0  0  0  0
 23 20  1  0  0  0  0
M  END
>  <MODEL>
11

>  <REMARK>
 VINA RESULT:    -7.127      2.026      2.827
 INTER + INTRA:          -7.127
 INTER:                  -7.127
 INTRA:                   0.000
 UNBOUND:                 0.000
  0 active torsions:
  status: ('A' for Active; 'I' for Inactive)

>  <TORSDO>
F 0

$$$$
./Sarcofina.pdbqt
 OpenBabel10282519553D

 23 25  0  0  1  0  0  0  0  0999 V2000
  -40.1000   39.4890   15.5160 O   0  0  0  0  0  0  0  0  0  0  0  0
  -34.1760   38.3070   11.6160 O   0  0  0  0  0  0  0  0  0  0  0  0
  -33.1180   39.2950    9.9130 O   0  0  0  0  0  0  0  0  0  0  0  0
  -40.4830   38.1240   15.3030 C   0  0  2  0  0  0  0  0  0  0  0  0
  -39.0750   38.5910   15.0770 C   0  0  2  0  0  3  0  0  0  0  0  0
  -41.3940   37.9170   14.1140 C   0  0  0  0  0  2  0  0  0  0  0  0
  -37.9890   38.2970   16.0800 C   0  0  0  0  0  2  0  0  0  0  0  0
  -40.8560   37.3690   16.5480 C   0  0  0  0  0  1  0  0  0  0  0  0
  -41.1750   36.5410   13.4640 C   0  0  0  0  0  2  0  0  0  0  0  0
  -36.6040   38.7230   15.5720 C   0  0  0  0  0  2  0  0  0  0  0  0
  -36.1860   37.9520   14.3540 C   0  0  0  0  0  0  0  0  0  0  0  0
  -39.8600   36.5110   12.7580 C   0  0  0  0  0  3  0  0  0  0  0  0
  -35.5300   37.9160   11.9410 C   0  0  1  0  0  3  0  0  0  0  0  0
  -35.9170   38.5920   13.2080 C   0  0  0  0  0  3  0  0  0  0  0  0
  -39.6820   36.7740   11.4570 C   0  0  0  0  0  0  0  0  0  0  0  0
  -36.3660   38.3950   10.7600 C   0  0  0  0  0  0  0  0  0  0  0  0
  -38.3000   36.8040   10.8710 C   0  0  0  0  0  2  0  0  0  0  0  0
  -37.8350   38.2700   10.7690 C   0  0  0  0  0  2  0  0  0  0  0  0
  -36.0910   36.4710   14.5110 C   0  0  0  0  0  1  0  0  0  0  0  0
  -35.5530   38.9630    9.8520 C   0  0  0  0  0  0  0  0  0  0  0  0
  -40.7940   37.0790   10.5110 C   0  0  0  0  0  1  0  0  0  0  0  0
  -34.1560   38.9160   10.3720 C   0  0  0  0  0  0  0  0  0  0  0  0
  -35.8370   39.5770    8.5480 C   0  0  0  0  0  1  0  0  0  0  0  0
  2 13  1  0  0  0  0
  3 22  2  0  0  0  0
  4  1  1  0  0  0  0
  4  8  1  1  0  0  0
  5  4  1  0  0  0  0
  5  1  1  0  0  0  0
  5  7  1  1  0  0  0
  6  4  1  0  0  0  0
  9  6  1  0  0  0  0
 10  7  1  0  0  0  0
 11 19  1  0  0  0  0
 11 10  1  0  0  0  0
 12  9  1  0  0  0  0
 13 14  1  1  0  0  0
 14 11  2  0  0  0  0
 15 12  2  0  0  0  0
 16 18  1  0  0  0  0
 16 13  1  0  0  0  0
 17 15  1  0  0  0  0
 18 17  1  0  0  0  0
 20 22  1  0  0  0  0
 20 16  2  0  0  0  0
 21 15  1  0  0  0  0
 22  2  1  0  0  0  0
 23 20  1  0  0  0  0
M  END
>  <MODEL>
12

>  <REMARK>
 VINA RESULT:    -7.034     29.563     32.690
 INTER + INTRA:          -7.034
 INTER:                  -7.034
 INTRA:                   0.000
 UNBOUND:                 0.000
  0 active torsions:
  status: ('A' for Active; 'I' for Inactive)

>  <TORSDO>
F 0

$$$$
./Sarcofina.pdbqt
 OpenBabel10282519553D

 23 25  0  0  1  0  0  0  0  0999 V2000
   -1.0090   35.2190   11.5790 O   0  0  0  0  0  0  0  0  0  0  0  0
   -7.7900   37.5450   12.1340 O   0  0  0  0  0  0  0  0  0  0  0  0
   -9.7020   36.8060   13.0250 O   0  0  0  0  0  0  0  0  0  0  0  0
   -1.0490   35.5140   10.1760 C   0  0  2  0  0  0  0  0  0  0  0  0
   -2.0500   36.0950   11.1310 C   0  0  2  0  0  3  0  0  0  0  0  0
   -1.4460   34.3390    9.3110 C   0  0  0  0  0  2  0  0  0  0  0  0
   -1.9460   37.5260   11.5910 C   0  0  0  0  0  2  0  0  0  0  0  0
    0.1020   36.3370    9.6700 C   0  0  0  0  0  1  0  0  0  0  0  0
   -2.1990   34.7940    8.0490 C   0  0  0  0  0  2  0  0  0  0  0  0
   -3.1580   37.9530   12.4310 C   0  0  0  0  0  2  0  0  0  0  0  0
   -4.4330   37.9230   11.6400 C   0  0  0  0  0  0  0  0  0  0  0  0
   -3.5600   35.2860    8.4140 C   0  0  0  0  0  3  0  0  0  0  0  0
   -6.7390   37.0180   11.2930 C   0  0  1  0  0  3  0  0  0  0  0  0
   -5.4510   37.1430   12.0270 C   0  0  0  0  0  3  0  0  0  0  0  0
   -4.6740   34.5430    8.3960 C   0  0  0  0  0  0  0  0  0  0  0  0
   -7.1230   35.5630   11.0560 C   0  0  0  0  0  0  0  0  0  0  0  0
   -5.9780   35.1180    8.8720 C   0  0  0  0  0  2  0  0  0  0  0  0
   -6.2280   34.6510   10.3190 C   0  0  0  0  0  2  0  0  0  0  0  0
   -4.4810   38.8000   10.4340 C   0  0  0  0  0  1  0  0  0  0  0  0
   -8.2910   35.3130   11.6740 C   0  0  0  0  0  0  0  0  0  0  0  0
   -4.7180   33.1210    7.9490 C   0  0  0  0  0  1  0  0  0  0  0  0
   -8.7360   36.5590   12.3630 C   0  0  0  0  0  0  0  0  0  0  0  0
   -9.0980   34.0900   11.7620 C   0  0  0  0  0  1  0  0  0  0  0  0
  2 22  1  0  0  0  0
  4  8  1  6  0  0  0
  4  5  1  0  0  0  0
  4  1  1  0  0  0  0
  5  1  1  0  0  0  0
  5  7  1  1  0  0  0
  6  4  1  0  0  0  0
  7 10  1  0  0  0  0
  9 12  1  0  0  0  0
  9  6  1  0  0  0  0
 11 14  2  0  0  0  0
 11 10  1  0  0  0  0
 13 14  1  1  0  0  0
 13  2  1  0  0  0  0
 15 12  2  0  0  0  0
 15 17  1  0  0  0  0
 16 13  1  0  0  0  0
 16 20  2  0  0  0  0
 17 18  1  0  0  0  0
 18 16  1  0  0  0  0
 19 11  1  0  0  0  0
 20 23  1  0  0  0  0
 20 22  1  0  0  0  0
 21 15  1  0  0  0  0
 22  3  2  0  0  0  0
M  END
>  <MODEL>
13

>  <REMARK>
 VINA RESULT:    -6.996     39.056     41.801
 INTER + INTRA:          -6.996
 INTER:                  -6.996
 INTRA:                   0.000
 UNBOUND:                 0.000
  0 active torsions:
  status: ('A' for Active; 'I' for Inactive)

>  <TORSDO>
F 0

$$$$
./Sarcofina.pdbqt
 OpenBabel10282519553D

 23 25  0  0  1  0  0  0  0  0999 V2000
  -42.6100   26.4640   -3.0060 O   0  0  0  0  0  0  0  0  0  0  0  0
  -43.5950   32.7050    0.4250 O   0  0  0  0  0  0  0  0  0  0  0  0
  -42.3230   34.1970    1.4990 O   0  0  0  0  0  0  0  0  0  0  0  0
  -43.6880   25.9040   -2.2460 C   0  0  2  0  0  0  0  0  0  0  0  0
  -43.4940   27.3870   -2.3610 C   0  0  2  0  0  3  0  0  0  0  0  0
  -43.2500   25.1960   -0.9840 C   0  0  0  0  0  2  0  0  0  0  0  0
  -44.3590   28.2150   -3.2770 C   0  0  0  0  0  2  0  0  0  0  0  0
  -44.7360   25.1970   -3.0590 C   0  0  0  0  0  1  0  0  0  0  0  0
  -44.3150   25.2950    0.1220 C   0  0  0  0  0  2  0  0  0  0  0  0
  -44.0960   29.7190   -3.1160 C   0  0  0  0  0  2  0  0  0  0  0  0
  -44.4520   30.2120   -1.7440 C   0  0  0  0  0  0  0  0  0  0  0  0
  -44.3790   26.6910    0.6470 C   0  0  0  0  0  3  0  0  0  0  0  0
  -43.7670   31.2700    0.4160 C   0  0  1  0  0  3  0  0  0  0  0  0
  -43.5210   30.7830   -0.9680 C   0  0  0  0  0  3  0  0  0  0  0  0
  -43.7140   27.1380    1.7210 C   0  0  0  0  0  0  0  0  0  0  0  0
  -42.7260   30.7470    1.3990 C   0  0  0  0  0  0  0  0  0  0  0  0
  -43.7830   28.5880    2.1060 C   0  0  0  0  0  2  0  0  0  0  0  0
  -42.5180   29.3000    1.5870 C   0  0  0  0  0  2  0  0  0  0  0  0
  -45.8730   30.0300   -1.3270 C   0  0  0  0  0  1  0  0  0  0  0  0
  -42.0650   31.7910    1.9300 C   0  0  0  0  0  0  0  0  0  0  0  0
  -42.8540   26.2770    2.5830 C   0  0  0  0  0  1  0  0  0  0  0  0
  -42.6010   33.0460    1.3290 C   0  0  0  0  0  0  0  0  0  0  0  0
  -40.9790   31.8480    2.9170 C   0  0  0  0  0  1  0  0  0  0  0  0
  1  5  1  0  0  0  0
  1  4  1  0  0  0  0
  2 22  1  0  0  0  0
  4  8  1  6  0  0  0
  4  6  1  0  0  0  0
  5  7  1  6  0  0  0
  5  4  1  0  0  0  0
  6  9  1  0  0  0  0
  7 10  1  0  0  0  0
  9 12  1  0  0  0  0
 10 11  1  0  0  0  0
 11 19  1  0  0  0  0
 11 14  2  0  0  0  0
 12 15  2  0  0  0  0
 13 14  1  6  0  0  0
 13  2  1  0  0  0  0
 13 16  1  0  0  0  0
 15 17  1  0  0  0  0
 15 21  1  0  0  0  0
 16 18  1  0  0  0  0
 16 20  2  0  0  0  0
 18 17  1  0  0  0  0
 20 23  1  0  0  0  0
 22  3  2  0  0  0  0
 22 20  1  0  0  0  0
M  END
>  <MODEL>
14

>  <REMARK>
 VINA RESULT:    -6.951     16.488     19.084
 INTER + INTRA:          -6.951
 INTER:                  -6.951
 INTRA:                   0.000
 UNBOUND:                 0.000
  0 active torsions:
  status: ('A' for Active; 'I' for Inactive)

>  <TORSDO>
F 0

$$$$
./Sarcofina.pdbqt
 OpenBabel10282519553D

 23 25  0  0  1  0  0  0  0  0999 V2000
  -40.3160   32.0470    1.1130 O   0  0  0  0  0  0  0  0  0  0  0  0
  -42.1760   25.5680    3.6160 O   0  0  0  0  0  0  0  0  0  0  0  0
  -42.0770   23.4520    2.9040 O   0  0  0  0  0  0  0  0  0  0  0  0
  -41.6220   32.5280    1.4570 C   0  0  2  0  0  0  0  0  0  0  0  0
  -41.0750   31.2560    2.0340 C   0  0  2  0  0  3  0  0  0  0  0  0
  -42.6220   32.4580    0.3250 C   0  0  0  0  0  2  0  0  0  0  0  0
  -40.5480   31.2050    3.4450 C   0  0  0  0  0  2  0  0  0  0  0  0
  -41.6380   33.7960    2.2620 C   0  0  0  0  0  1  0  0  0  0  0  0
  -44.0520   32.2250    0.8440 C   0  0  0  0  0  2  0  0  0  0  0  0
  -40.1910   29.7760    3.8780 C   0  0  0  0  0  2  0  0  0  0  0  0
  -41.3940   28.8790    3.9120 C   0  0  0  0  0  0  0  0  0  0  0  0
  -44.1880   30.8320    1.3630 C   0  0  0  0  0  3  0  0  0  0  0  0
  -42.5970   26.8470    3.0880 C   0  0  1  0  0  3  0  0  0  0  0  0
  -41.4380   27.7780    3.1500 C   0  0  0  0  0  3  0  0  0  0  0  0
  -44.6430   29.7910    0.6540 C   0  0  0  0  0  0  0  0  0  0  0  0
  -43.0190   26.5550    1.6540 C   0  0  0  0  0  0  0  0  0  0  0  0
  -44.6520   28.4130    1.2510 C   0  0  0  0  0  2  0  0  0  0  0  0
  -43.4170   27.6430    0.7420 C   0  0  0  0  0  2  0  0  0  0  0  0
  -42.4960   29.2880    4.8320 C   0  0  0  0  0  1  0  0  0  0  0  0
  -42.8820   25.2380    1.4180 C   0  0  0  0  0  0  0  0  0  0  0  0
  -45.1360   29.8930   -0.7500 C   0  0  0  0  0  1  0  0  0  0  0  0
  -42.3500   24.5900    2.6510 C   0  0  0  0  0  0  0  0  0  0  0  0
  -43.1460   24.4370    0.2160 C   0  0  0  0  0  1  0  0  0  0  0  0
  1  4  1  0  0  0  0
  1  5  1  0  0  0  0
  4  5  1  0  0  0  0
  4  8  1  1  0  0  0
  5  7  1  1  0  0  0
  6  9  1  0  0  0  0
  6  4  1  0  0  0  0
  7 10  1  0  0  0  0
  9 12  1  0  0  0  0
 10 11  1  0  0  0  0
 11 19  1  0  0  0  0
 13 14  1  6  0  0  0
 13  2  1  0  0  0  0
 14 11  2  0  0  0  0
 15 17  1  0  0  0  0
 15 12  2  0  0  0  0
 16 13  1  0  0  0  0
 18 17  1  0  0  0  0
 18 16  1  0  0  0  0
 20 16  2  0  0  0  0
 20 22  1  0  0  0  0
 21 15  1  0  0  0  0
 22  3  2  0  0  0  0
 22  2  1  0  0  0  0
 23 20  1  0  0  0  0
M  END
>  <MODEL>
15

>  <REMARK>
 VINA RESULT:    -6.941     18.479     20.828
 INTER + INTRA:          -6.941
 INTER:                  -6.941
 INTRA:                   0.000
 UNBOUND:                 0.000
  0 active torsions:
  status: ('A' for Active; 'I' for Inactive)

>  <TORSDO>
F 0

$$$$
./Sarcofina.pdbqt
 OpenBabel10282519553D

 23 25  0  0  1  0  0  0  0  0999 V2000
  -38.1190   40.3900    9.5000 O   0  0  0  0  0  0  0  0  0  0  0  0
  -35.7850   36.6440   15.1760 O   0  0  0  0  0  0  0  0  0  0  0  0
  -36.6150   35.9630   17.1360 O   0  0  0  0  0  0  0  0  0  0  0  0
  -36.9320   41.1910    9.5700 C   0  0  2  0  0  0  0  0  0  0  0  0
  -37.0270   39.8610   10.2600 C   0  0  2  0  0  3  0  0  0  0  0  0
  -37.0900   42.4580   10.3800 C   0  0  0  0  0  2  0  0  0  0  0  0
  -36.3600   38.6380    9.6850 C   0  0  0  0  0  2  0  0  0  0  0  0
  -36.1870   41.3360    8.2730 C   0  0  0  0  0  1  0  0  0  0  0  0
  -35.7740   42.8600   11.0680 C   0  0  0  0  0  2  0  0  0  0  0  0
  -36.4490   37.4330   10.6310 C   0  0  0  0  0  2  0  0  0  0  0  0
  -35.7160   37.6690   11.9190 C   0  0  0  0  0  0  0  0  0  0  0  0
  -35.4640   41.9110   12.1770 C   0  0  0  0  0  3  0  0  0  0  0  0
  -35.7390   37.8710   14.4120 C   0  0  1  0  0  3  0  0  0  0  0  0
  -36.3680   37.6170   13.0880 C   0  0  0  0  0  3  0  0  0  0  0  0
  -35.7940   42.0980   13.4610 C   0  0  0  0  0  0  0  0  0  0  0  0
  -36.5340   38.8730   15.2400 C   0  0  0  0  0  0  0  0  0  0  0  0
  -35.5120   41.0320   14.4810 C   0  0  0  0  0  2  0  0  0  0  0  0
  -36.8040   40.2320   14.7330 C   0  0  0  0  0  2  0  0  0  0  0  0
  -34.2550   37.9510   11.8040 C   0  0  0  0  0  1  0  0  0  0  0  0
  -36.9500   38.2740   16.3690 C   0  0  0  0  0  0  0  0  0  0  0  0
  -36.4730   43.3230   13.9750 C   0  0  0  0  0  1  0  0  0  0  0  0
  -36.4840   36.8580   16.3530 C   0  0  0  0  0  0  0  0  0  0  0  0
  -37.7400   38.7800   17.4990 C   0  0  0  0  0  1  0  0  0  0  0  0
  1  4  1  0  0  0  0
  1  5  1  0  0  0  0
  2 22  1  0  0  0  0
  4  8  1  6  0  0  0
  4  5  1  0  0  0  0
  4  6  1  0  0  0  0
  5  7  1  6  0  0  0
  6  9  1  0  0  0  0
  7 10  1  0  0  0  0
  9 12  1  0  0  0  0
 10 11  1  0  0  0  0
 11 14  2  0  0  0  0
 12 15  2  0  0  0  0
 13 14  1  6  0  0  0
 13  2  1  0  0  0  0
 13 16  1  0  0  0  0
 15 21  1  0  0  0  0
 15 17  1  0  0  0  0
 16 20  2  0  0  0  0
 17 18  1  0  0  0  0
 18 16  1  0  0  0  0
 19 11  1  0  0  0  0
 20 23  1  0  0  0  0
 22 20  1  0  0  0  0
 22  3  2  0  0  0  0
M  END
>  <MODEL>
16

>  <REMARK>
 VINA RESULT:    -6.936     30.009     33.130
 INTER + INTRA:          -6.936
 INTER:                  -6.936
 INTRA:                   0.000
 UNBOUND:                 0.000
  0 active torsions:
  status: ('A' for Active; 'I' for Inactive)

>  <TORSDO>
F 0

$$$$
./Sarcofina.pdbqt
 OpenBabel10282519553D

 23 25  0  0  1  0  0  0  0  0999 V2000
  -43.0380   27.0710   -1.9100 O   0  0  0  0  0  0  0  0  0  0  0  0
  -42.0430   32.6740    2.4850 O   0  0  0  0  0  0  0  0  0  0  0  0
  -40.3060   33.7990    3.3290 O   0  0  0  0  0  0  0  0  0  0  0  0
  -43.9420   26.5090   -0.9490 C   0  0  2  0  0  0  0  0  0  0  0  0
  -43.5550   27.9580   -0.9110 C   0  0  2  0  0  3  0  0  0  0  0  0
  -43.2930   25.5430    0.0170 C   0  0  0  0  0  2  0  0  0  0  0  0
  -44.4940   29.0270   -1.4070 C   0  0  0  0  0  2  0  0  0  0  0  0
  -45.2710   26.0800   -1.5050 C   0  0  0  0  0  1  0  0  0  0  0  0
  -43.9850   25.5640    1.3910 C   0  0  0  0  0  2  0  0  0  0  0  0
  -43.9620   30.4390   -1.1260 C   0  0  0  0  0  2  0  0  0  0  0  0
  -43.8460   30.7180    0.3450 C   0  0  0  0  0  0  0  0  0  0  0  0
  -43.6810   26.8420    2.0980 C   0  0  0  0  0  3  0  0  0  0  0  0
  -42.4370   31.2910    2.3290 C   0  0  1  0  0  3  0  0  0  0  0  0
  -42.6600   31.0330    0.8810 C   0  0  0  0  0  3  0  0  0  0  0  0
  -42.6860   27.0140    2.9780 C   0  0  0  0  0  0  0  0  0  0  0  0
  -41.2640   30.4890    2.8780 C   0  0  0  0  0  0  0  0  0  0  0  0
  -42.4150   28.3710    3.5620 C   0  0  0  0  0  2  0  0  0  0  0  0
  -41.2450   29.0170    2.7960 C   0  0  0  0  0  2  0  0  0  0  0  0
  -45.1090   30.6250    1.1340 C   0  0  0  0  0  1  0  0  0  0  0  0
  -40.3260   31.3410    3.3290 C   0  0  0  0  0  0  0  0  0  0  0  0
  -41.7700   25.9230    3.4200 C   0  0  0  0  0  1  0  0  0  0  0  0
  -40.8000   32.7350    3.0930 C   0  0  0  0  0  0  0  0  0  0  0  0
  -39.0160   31.1000    3.9490 C   0  0  0  0  0  1  0  0  0  0  0  0
  1  4  1  0  0  0  0
  1  5  1  0  0  0  0
  2 22  1  0  0  0  0
  4  8  1  6  0  0  0
  4  5  1  0  0  0  0
  4  6  1  0  0  0  0
  5  7  1  6  0  0  0
  6  9  1  0  0  0  0
  7 10  1  0  0  0  0
  9 12  1  0  0  0  0
 10 11  1  0  0  0  0
 11 14  2  0  0  0  0
 11 19  1  0  0  0  0
 12 15  2  0  0  0  0
 13 14  1  6  0  0  0
 13  2  1  0  0  0  0
 13 16  1  0  0  0  0
 15 21  1  0  0  0  0
 15 17  1  0  0  0  0
 16 20  2  0  0  0  0
 18 16  1  0  0  0  0
 18 17  1  0  0  0  0
 20 23  1  0  0  0  0
 22  3  2  0  0  0  0
 22 20  1  0  0  0  0
M  END
>  <MODEL>
17

>  <REMARK>
 VINA RESULT:    -6.923     17.907     19.995
 INTER + INTRA:          -6.923
 INTER:                  -6.923
 INTRA:                   0.000
 UNBOUND:                 0.000
  0 active torsions:
  status: ('A' for Active; 'I' for Inactive)

>  <TORSDO>
F 0

$$$$
./Sarcofina.pdbqt
 OpenBabel10282519553D

 23 25  0  0  1  0  0  0  0  0999 V2000
  -40.7090   32.5650    1.1460 O   0  0  0  0  0  0  0  0  0  0  0  0
  -41.2360   27.5840    6.3040 O   0  0  0  0  0  0  0  0  0  0  0  0
  -40.5050   25.4990    6.6410 O   0  0  0  0  0  0  0  0  0  0  0  0
  -42.1300   32.7450    1.2080 C   0  0  2  0  0  0  0  0  0  0  0  0
  -41.3730   32.0690    2.3130 C   0  0  2  0  0  3  0  0  0  0  0  0
  -42.9020   31.9040    0.2170 C   0  0  0  0  0  2  0  0  0  0  0  0
  -41.0640   32.7910    3.5990 C   0  0  0  0  0  2  0  0  0  0  0  0
  -42.5820   34.1720    1.3440 C   0  0  0  0  0  1  0  0  0  0  0  0
  -44.2880   31.5160    0.7600 C   0  0  0  0  0  2  0  0  0  0  0  0
  -40.4290   31.8630    4.6450 C   0  0  0  0  0  2  0  0  0  0  0  0
  -41.3600   30.7630    5.0650 C   0  0  0  0  0  0  0  0  0  0  0  0
  -44.1470   30.5130    1.8560 C   0  0  0  0  0  3  0  0  0  0  0  0
  -41.8810   28.3240    5.2420 C   0  0  1  0  0  3  0  0  0  0  0  0
  -41.0140   29.4810    4.8910 C   0  0  0  0  0  3  0  0  0  0  0  0
  -44.2160   29.1860    1.6950 C   0  0  0  0  0  0  0  0  0  0  0  0
  -41.9990   27.3300    4.0930 C   0  0  0  0  0  0  0  0  0  0  0  0
  -43.9670   28.2660    2.8560 C   0  0  0  0  0  2  0  0  0  0  0  0
  -42.5180   27.7470    2.7780 C   0  0  0  0  0  2  0  0  0  0  0  0
  -42.6530   31.1910    5.6760 C   0  0  0  0  0  1  0  0  0  0  0  0
  -41.5030   26.1440    4.4890 C   0  0  0  0  0  0  0  0  0  0  0  0
  -44.5050   28.5210    0.3920 C   0  0  0  0  0  1  0  0  0  0  0  0
  -41.0150   26.2800    5.8910 C   0  0  0  0  0  0  0  0  0  0  0  0
  -41.3780   24.8630    3.7820 C   0  0  0  0  0  1  0  0  0  0  0  0
  1  4  1  0  0  0  0
  1  5  1  0  0  0  0
  4  8  1  1  0  0  0
  4  5  1  0  0  0  0
  5  7  1  1  0  0  0
  6  9  1  0  0  0  0
  6  4  1  0  0  0  0
  7 10  1  0  0  0  0
  9 12  1  0  0  0  0
 10 11  1  0  0  0  0
 11 19  1  0  0  0  0
 13 14  1  6  0  0  0
 13  2  1  0  0  0  0
 14 11  2  0  0  0  0
 15 12  2  0  0  0  0
 15 17  1  0  0  0  0
 16 20  2  0  0  0  0
 16 13  1  0  0  0  0
 18 17  1  0  0  0  0
 18 16  1  0  0  0  0
 20 22  1  0  0  0  0
 21 15  1  0  0  0  0
 22  2  1  0  0  0  0
 22  3  2  0  0  0  0
 23 20  1  0  0  0  0
M  END
>  <MODEL>
18

>  <REMARK>
 VINA RESULT:    -6.812     19.945     21.809
 INTER + INTRA:          -6.812
 INTER:                  -6.812
 INTRA:                   0.000
 UNBOUND:                 0.000
  0 active torsions:
  status: ('A' for Active; 'I' for Inactive)

>  <TORSDO>
F 0

$$$$
./Sarcofina.pdbqt
 OpenBabel10282519553D

 23 25  0  0  1  0  0  0  0  0999 V2000
  -42.7150   25.2260    0.8990 O   0  0  0  0  0  0  0  0  0  0  0  0
  -41.8450   32.3550    1.2420 O   0  0  0  0  0  0  0  0  0  0  0  0
  -40.1340   33.7930    1.2440 O   0  0  0  0  0  0  0  0  0  0  0  0
  -43.5950   25.3030    2.0280 C   0  0  2  0  0  0  0  0  0  0  0  0
  -43.2490   26.5160    1.2150 C   0  0  2  0  0  3  0  0  0  0  0  0
  -42.9120   25.0830    3.3590 C   0  0  0  0  0  2  0  0  0  0  0  0
  -44.2210   27.0860    0.2160 C   0  0  0  0  0  2  0  0  0  0  0  0
  -44.9160   24.6070    1.8500 C   0  0  0  0  0  1  0  0  0  0  0  0
  -43.5940   25.8780    4.4850 C   0  0  0  0  0  2  0  0  0  0  0  0
  -43.7280   28.4120   -0.3800 C   0  0  0  0  0  2  0  0  0  0  0  0
  -43.6080   29.4890    0.6590 C   0  0  0  0  0  0  0  0  0  0  0  0
  -43.3210   27.3370    4.3210 C   0  0  0  0  0  3  0  0  0  0  0  0
  -42.2010   31.1280    1.9190 C   0  0  1  0  0  3  0  0  0  0  0  0
  -42.4270   30.0790    0.8900 C   0  0  0  0  0  3  0  0  0  0  0  0
  -42.3240   28.0020    4.9180 C   0  0  0  0  0  0  0  0  0  0  0  0
  -41.0010   30.8110    2.8040 C   0  0  0  0  0  0  0  0  0  0  0  0
  -42.0870   29.4530    4.6090 C   0  0  0  0  0  2  0  0  0  0  0  0
  -40.9420   29.5610    3.5830 C   0  0  0  0  0  2  0  0  0  0  0  0
  -44.8620   29.8450    1.3860 C   0  0  0  0  0  1  0  0  0  0  0  0
  -40.0840   31.7840    2.6600 C   0  0  0  0  0  0  0  0  0  0  0  0
  -41.3750   27.3830    5.8870 C   0  0  0  0  0  1  0  0  0  0  0  0
  -40.5990   32.7780    1.6750 C   0  0  0  0  0  0  0  0  0  0  0  0
  -38.7640   31.9690    3.2770 C   0  0  0  0  0  1  0  0  0  0  0  0
  1  5  1  0  0  0  0
  1  4  1  0  0  0  0
  2 22  1  0  0  0  0
  2 13  1  0  0  0  0
  3 22  2  0  0  0  0
  4  8  1  6  0  0  0
  4  6  1  0  0  0  0
  5  7  1  6  0  0  0
  5  4  1  0  0  0  0
  6  9  1  0  0  0  0
 10  7  1  0  0  0  0
 10 11  1  0  0  0  0
 11 14  2  0  0  0  0
 11 19  1  0  0  0  0
 12  9  1  0  0  0  0
 12 15  2  0  0  0  0
 13 14  1  6  0  0  0
 13 16  1  0  0  0  0
 15 21  1  0  0  0  0
 16 18  1  0  0  0  0
 17 15  1  0  0  0  0
 18 17  1  0  0  0  0
 20 16  2  0  0  0  0
 20 23  1  0  0  0  0
 22 20  1  0  0  0  0
M  END
>  <MODEL>
19

>  <REMARK>
 VINA RESULT:    -6.788     18.862     20.861
 INTER + INTRA:          -6.788
 INTER:                  -6.788
 INTRA:                   0.000
 UNBOUND:                 0.000
  0 active torsions:
  status: ('A' for Active; 'I' for Inactive)

>  <TORSDO>
F 0

$$$$
./Sarcofina.pdbqt
 OpenBabel10282519553D

 23 25  0  0  1  0  0  0  0  0999 V2000
  -33.1250   18.5120  -17.9760 O   0  0  0  0  0  0  0  0  0  0  0  0
  -36.1880   23.3070  -13.5790 O   0  0  0  0  0  0  0  0  0  0  0  0
  -37.7440   23.2900  -11.9750 O   0  0  0  0  0  0  0  0  0  0  0  0
  -33.3740   19.3980  -19.0760 C   0  0  2  0  0  0  0  0  0  0  0  0
  -33.4140   19.8770  -17.6550 C   0  0  2  0  0  3  0  0  0  0  0  0
  -34.6720   19.1280  -19.8030 C   0  0  0  0  0  2  0  0  0  0  0  0
  -32.2730   20.6680  -17.0680 C   0  0  0  0  0  2  0  0  0  0  0  0
  -32.1830   19.6730  -19.9490 C   0  0  0  0  0  1  0  0  0  0  0  0
  -35.2750   20.4180  -20.3870 C   0  0  0  0  0  2  0  0  0  0  0  0
  -32.5960   21.1910  -15.6610 C   0  0  0  0  0  2  0  0  0  0  0  0
  -33.7400   22.1620  -15.6670 C   0  0  0  0  0  0  0  0  0  0  0  0
  -35.7980   21.2820  -19.2880 C   0  0  0  0  0  3  0  0  0  0  0  0
  -36.0430   22.7900  -14.9220 C   0  0  1  0  0  3  0  0  0  0  0  0
  -34.8460   21.9090  -14.9540 C   0  0  0  0  0  3  0  0  0  0  0  0
  -37.0660   21.2900  -18.8570 C   0  0  0  0  0  0  0  0  0  0  0  0
  -37.3300   22.0150  -15.1810 C   0  0  0  0  0  0  0  0  0  0  0  0
  -37.4620   22.1350  -17.6810 C   0  0  0  0  0  2  0  0  0  0  0  0
  -37.5150   21.2450  -16.4240 C   0  0  0  0  0  2  0  0  0  0  0  0
  -33.5570   23.3910  -16.4930 C   0  0  0  0  0  1  0  0  0  0  0  0
  -38.1270   22.1210  -14.1030 C   0  0  0  0  0  0  0  0  0  0  0  0
  -38.1550   20.4700  -19.4620 C   0  0  0  0  0  1  0  0  0  0  0  0
  -37.4240   22.9390  -13.0730 C   0  0  0  0  0  0  0  0  0  0  0  0
  -39.4620   21.5740  -13.8290 C   0  0  0  0  0  1  0  0  0  0  0  0
  1  5  1  0  0  0  0
  2 22  1  0  0  0  0
  4  8  1  6  0  0  0
  4  1  1  0  0  0  0
  4  5  1  0  0  0  0
  5  7  1  6  0  0  0
  6  4  1  0  0  0  0
  7 10  1  0  0  0  0
  9  6  1  0  0  0  0
  9 12  1  0  0  0  0
 11 10  1  0  0  0  0
 11 14  2  0  0  0  0
 12 15  2  0  0  0  0
 13 14  1  1  0  0  0
 13  2  1  0  0  0  0
 15 17  1  0  0  0  0
 16 13  1  0  0  0  0
 16 20  2  0  0  0  0
 17 18  1  0  0  0  0
 18 16  1  0  0  0  0
 19 11  1  0  0  0  0
 20 23  1  0  0  0  0
 20 22  1  0  0  0  0
 21 15  1  0  0  0  0
 22  3  2  0  0  0  0
M  END
>  <MODEL>
20

>  <REMARK>
 VINA RESULT:    -6.736      2.570      4.694
 INTER + INTRA:          -6.736
 INTER:                  -6.736
 INTRA:                   0.000
 UNBOUND:                 0.000
  0 active torsions:
  status: ('A' for Active; 'I' for Inactive)

>  <TORSDO>
F 0

$$$$
