./Silimarina.pdbqt
 OpenBabel10282519553D

 40 44  0  0  1  0  0  0  0  0999 V2000
  -42.5030   29.9560    0.8460 O   0  0  0  0  0  0  0  0  0  0  0  0
  -44.2450   32.0680   -0.0070 O   0  0  0  0  0  0  0  0  0  0  0  0
  -42.2330   31.3390    1.1290 C   0  0  1  0  0  3  0  0  0  0  0  0
  -43.5650   32.1020    1.2540 C   0  0  1  0  0  3  0  0  0  0  0  0
  -44.4630   28.3120   -1.7150 C   0  0  0  0  0  0  0  0  0  0  0  0
  -43.4320   29.7900   -0.1400 C   0  0  0  0  0  0  0  0  0  0  0  0
  -44.2980   30.8160   -0.5480 C   0  0  0  0  0  0  0  0  0  0  0  0
  -43.5130   28.5260   -0.7150 C   0  0  0  0  0  3  0  0  0  0  0  0
  -45.3110   29.3360   -2.1360 C   0  0  0  0  0  3  0  0  0  0  0  0
  -45.2350   30.6000   -1.5530 C   0  0  0  0  0  3  0  0  0  0  0  0
  -44.5550   26.9330   -2.3010 C   0  0  2  0  0  3  0  0  0  0  0  0
  -44.8060   26.0640   -1.1830 O   0  0  0  0  0  0  0  0  0  0  0  0
  -44.4260   24.7790   -1.2490 C   0  0  0  0  0  0  0  0  0  0  0  0
  -43.6550   24.2390   -2.2960 C   0  0  0  0  0  0  0  0  0  0  0  0
  -44.8610   24.0090   -0.1670 C   0  0  0  0  0  3  0  0  0  0  0  0
  -43.2420   25.0920   -3.3930 C   0  0  0  0  0  0  0  0  0  0  0  0
  -43.3240   22.8740   -2.2210 C   0  0  0  0  0  0  0  0  0  0  0  0
  -42.9170   24.7360   -4.4980 O   0  0  0  0  0  0  0  0  0  0  0  0
  -43.2550   26.5830   -3.0510 C   0  0  1  0  0  3  0  0  0  0  0  0
  -43.7390   22.0620   -1.1620 C   0  0  0  0  0  3  0  0  0  0  0  0
  -44.5030   22.6590   -0.1530 C   0  0  0  0  0  0  0  0  0  0  0  0
  -43.2470   27.3840   -4.2070 O   0  0  0  0  0  0  0  0  0  0  0  0
  -43.6950   28.2490   -4.0230 H   0  0  0  0  0  0  0  0  0  0  0  0
  -42.5560   22.4010   -3.2160 O   0  0  0  0  0  0  0  0  0  0  0  0
  -41.7030   22.0080   -2.8880 H   0  0  0  0  0  0  0  0  0  0  0  0
  -44.9480   21.9610    0.9110 O   0  0  0  0  0  0  0  0  0  0  0  0
  -45.8050   22.3090    1.2670 H   0  0  0  0  0  0  0  0  0  0  0  0
  -41.4790   31.3310    2.4230 C   0  0  0  0  0  0  0  0  0  0  0  0
  -40.2930   32.0570    2.5360 C   0  0  0  0  0  3  0  0  0  0  0  0
  -39.5780   32.0370    3.7380 C   0  0  0  0  0  0  0  0  0  0  0  0
  -40.0790   31.2830    4.8170 C   0  0  0  0  0  0  0  0  0  0  0  0
  -41.2620   30.5620    4.6980 C   0  0  0  0  0  3  0  0  0  0  0  0
  -41.9680   30.5890    3.4970 C   0  0  0  0  0  3  0  0  0  0  0  0
  -38.4350   32.7620    3.6900 O   0  0  0  0  0  0  0  0  0  0  0  0
  -38.2980   33.7110    2.6370 C   0  0  0  0  0  1  0  0  0  0  0  0
  -39.3690   31.3050    5.9800 O   0  0  0  0  0  0  0  0  0  0  0  0
  -38.8780   30.4580    6.1230 H   0  0  0  0  0  0  0  0  0  0  0  0
  -43.3870   33.6010    1.5350 C   0  0  0  0  0  2  0  0  0  0  0  0
  -43.5490   33.8520    2.9100 O   0  0  0  0  0  0  0  0  0  0  0  0
  -42.7180   34.2050    3.3010 H   0  0  0  0  0  0  0  0  0  0  0  0
  1  3  1  0  0  0  0
  2  4  1  0  0  0  0
  3  4  1  0  0  0  0
  3 28  1  1  0  0  0
  4 38  1  6  0  0  0
  5  8  1  0  0  0  0
  6  1  1  0  0  0  0
  7  6  1  0  0  0  0
  7  2  1  0  0  0  0
  8  6  2  0  0  0  0
  9  5  2  0  0  0  0
  9 10  1  0  0  0  0
 10  7  2  0  0  0  0
 11  5  1  1  0  0  0
 11 12  1  0  0  0  0
 13 12  1  0  0  0  0
 13 15  1  0  0  0  0
 14 17  1  0  0  0  0
 14 13  2  0  0  0  0
 15 21  2  0  0  0  0
 16 19  1  0  0  0  0
 16 14  1  0  0  0  0
 17 20  2  0  0  0  0
 18 16  2  0  0  0  0
 19 22  1  6  0  0  0
 19 11  1  0  0  0  0
 20 21  1  0  0  0  0
 21 26  1  0  0  0  0
 22 23  1  0  0  0  0
 24 25  1  0  0  0  0
 24 17  1  0  0  0  0
 26 27  1  0  0  0  0
 28 29  2  0  0  0  0
 28 33  1  0  0  0  0
 29 30  1  0  0  0  0
 30 31  2  0  0  0  0
 31 36  1  0  0  0  0
 32 31  1  0  0  0  0
 33 32  2  0  0  0  0
 34 30  1  0  0  0  0
 35 34  1  0  0  0  0
 36 37  1  0  0  0  0
 38 39  1  0  0  0  0
 39 40  1  0  0  0  0
M  END
>  <MODEL>
1

>  <REMARK>
 VINA RESULT:    -8.899      0.000      0.000
 INTER + INTRA:         -13.214
 INTER:                 -12.280
 INTRA:                  -0.934
 UNBOUND:                -0.934
  9 active torsions:
  status: ('A' for Active; 'I' for Inactive)
    1  A    between atoms: O4_4  and  C5_15 
    2  A    between atoms: O5_5  and  C10_20 
    3  A    between atoms: O7_7  and  C18_28 
    4  A    between atoms: O8_8  and  C20_30 
    5  A    between atoms: O9_9  and  C22_32 
    6  A    between atoms: O10_10  and  C24_34 
    7  A    between atoms: C1_11  and  C8_18 
    8  A    between atoms: C2_12  and  C10_20 
    9  A    between atoms: C3_13  and  C4_14 

>  <TORSDO>
F 9

$$$$
./Silimarina.pdbqt
 OpenBabel10282519553D

 40 44  0  0  1  0  0  0  0  0999 V2000
  -42.1720   30.0720    0.5560 O   0  0  0  0  0  0  0  0  0  0  0  0
  -44.1000   32.1490    0.1270 O   0  0  0  0  0  0  0  0  0  0  0  0
  -41.9110   31.4450    0.8900 C   0  0  1  0  0  3  0  0  0  0  0  0
  -43.2350   32.1350    1.2690 C   0  0  1  0  0  3  0  0  0  0  0  0
  -44.4440   28.5010   -1.7840 C   0  0  0  0  0  0  0  0  0  0  0  0
  -43.2360   29.9240   -0.2860 C   0  0  0  0  0  0  0  0  0  0  0  0
  -44.1910   30.9330   -0.4850 C   0  0  0  0  0  0  0  0  0  0  0  0
  -43.3580   28.6970   -0.9280 C   0  0  0  0  0  3  0  0  0  0  0  0
  -45.3840   29.5100   -1.9980 C   0  0  0  0  0  3  0  0  0  0  0  0
  -45.2640   30.7370   -1.3480 C   0  0  0  0  0  3  0  0  0  0  0  0
  -44.5760   27.1600   -2.4440 C   0  0  2  0  0  3  0  0  0  0  0  0
  -44.6450   26.2140   -1.3620 O   0  0  0  0  0  0  0  0  0  0  0  0
  -44.2400   24.9510   -1.5650 C   0  0  0  0  0  0  0  0  0  0  0  0
  -43.6050   24.5070   -2.7410 C   0  0  0  0  0  0  0  0  0  0  0  0
  -44.5000   24.0990   -0.4890 C   0  0  0  0  0  3  0  0  0  0  0  0
  -43.3720   25.4420   -3.8240 C   0  0  0  0  0  0  0  0  0  0  0  0
  -43.2280   23.1530   -2.8030 C   0  0  0  0  0  0  0  0  0  0  0  0
  -43.1920   25.1680   -4.9850 O   0  0  0  0  0  0  0  0  0  0  0  0
  -43.3810   26.9060   -3.3840 C   0  0  1  0  0  3  0  0  0  0  0  0
  -43.4690   22.2610   -1.7550 C   0  0  0  0  0  3  0  0  0  0  0  0
  -44.1050   22.7650   -0.6130 C   0  0  0  0  0  0  0  0  0  0  0  0
  -43.5550   27.7780   -4.4740 O   0  0  0  0  0  0  0  0  0  0  0  0
  -44.2200   28.4770   -4.2460 H   0  0  0  0  0  0  0  0  0  0  0  0
  -42.5900   22.7730   -3.9220 O   0  0  0  0  0  0  0  0  0  0  0  0
  -42.7070   23.4190   -4.6690 H   0  0  0  0  0  0  0  0  0  0  0  0
  -44.3790   21.9850    0.4520 O   0  0  0  0  0  0  0  0  0  0  0  0
  -45.3490   21.8130    0.5610 H   0  0  0  0  0  0  0  0  0  0  0  0
  -40.9650   31.3900    2.0500 C   0  0  0  0  0  0  0  0  0  0  0  0
  -41.2580   30.5760    3.1430 C   0  0  0  0  0  3  0  0  0  0  0  0
  -40.3850   30.5370    4.2350 C   0  0  0  0  0  0  0  0  0  0  0  0
  -39.2180   31.3230    4.2030 C   0  0  0  0  0  0  0  0  0  0  0  0
  -38.9300   32.1340    3.1090 C   0  0  0  0  0  3  0  0  0  0  0  0
  -39.8060   32.1640    2.0250 C   0  0  0  0  0  3  0  0  0  0  0  0
  -40.8150   29.7270    5.2320 O   0  0  0  0  0  0  0  0  0  0  0  0
  -41.7730   28.7250    4.9040 C   0  0  0  0  0  1  0  0  0  0  0  0
  -38.3780   31.2430    5.2730 O   0  0  0  0  0  0  0  0  0  0  0  0
  -38.6080   30.4820    5.8600 H   0  0  0  0  0  0  0  0  0  0  0  0
  -43.0700   33.6200    1.6230 C   0  0  0  0  0  2  0  0  0  0  0  0
  -43.2590   33.8060    3.0050 O   0  0  0  0  0  0  0  0  0  0  0  0
  -42.9770   34.7080    3.2770 H   0  0  0  0  0  0  0  0  0  0  0  0
  1  3  1  0  0  0  0
  2  4  1  0  0  0  0
  3  4  1  0  0  0  0
  3 28  1  1  0  0  0
  4 38  1  6  0  0  0
  5  8  1  0  0  0  0
  6  1  1  0  0  0  0
  7  6  1  0  0  0  0
  7  2  1  0  0  0  0
  8  6  2  0  0  0  0
  9  5  2  0  0  0  0
  9 10  1  0  0  0  0
 10  7  2  0  0  0  0
 11  5  1  1  0  0  0
 11 12  1  0  0  0  0
 13 12  1  0  0  0  0
 13 15  1  0  0  0  0
 14 13  2  0  0  0  0
 16 19  1  0  0  0  0
 16 14  1  0  0  0  0
 17 14  1  0  0  0  0
 17 20  2  0  0  0  0
 18 16  2  0  0  0  0
 19 22  1  6  0  0  0
 19 11  1  0  0  0  0
 20 21  1  0  0  0  0
 21 15  2  0  0  0  0
 21 26  1  0  0  0  0
 22 23  1  0  0  0  0
 24 17  1  0  0  0  0
 25 24  1  0  0  0  0
 26 27  1  0  0  0  0
 28 29  1  0  0  0  0
 29 30  2  0  0  0  0
 30 34  1  0  0  0  0
 31 30  1  0  0  0  0
 31 36  1  0  0  0  0
 32 31  2  0  0  0  0
 33 28  2  0  0  0  0
 33 32  1  0  0  0  0
 35 34  1  0  0  0  0
 36 37  1  0  0  0  0
 38 39  1  0  0  0  0
 39 40  1  0  0  0  0
M  END
>  <MODEL>
2

>  <REMARK>
 VINA RESULT:    -8.894      0.761      1.643
 INTER + INTRA:         -13.207
 INTER:                 -12.190
 INTRA:                  -1.017
 UNBOUND:                -0.934
  9 active torsions:
  status: ('A' for Active; 'I' for Inactive)
    1  A    between atoms: O4_4  and  C5_15 
    2  A    between atoms: O5_5  and  C10_20 
    3  A    between atoms: O7_7  and  C18_28 
    4  A    between atoms: O8_8  and  C20_30 
    5  A    between atoms: O9_9  and  C22_32 
    6  A    between atoms: O10_10  and  C24_34 
    7  A    between atoms: C1_11  and  C8_18 
    8  A    between atoms: C2_12  and  C10_20 
    9  A    between atoms: C3_13  and  C4_14 

>  <TORSDO>
F 9

$$$$
./Silimarina.pdbqt
 OpenBabel10282519553D

 40 44  0  0  1  0  0  0  0  0999 V2000
  -29.6560   22.9450  -11.9710 O   0  0  0  0  0  0  0  0  0  0  0  0
  -29.2450   20.5900  -13.5530 O   0  0  0  0  0  0  0  0  0  0  0  0
  -30.5760   22.5350  -12.9950 C   0  0  1  0  0  3  0  0  0  0  0  0
  -30.5470   21.0000  -13.1200 C   0  0  1  0  0  3  0  0  0  0  0  0
  -26.1360   22.2930  -11.4300 C   0  0  0  0  0  0  0  0  0  0  0  0
  -28.4400   22.3340  -12.0770 C   0  0  0  0  0  0  0  0  0  0  0  0
  -28.2400   21.1710  -12.8370 C   0  0  0  0  0  0  0  0  0  0  0  0
  -27.3920   22.9000  -11.3610 C   0  0  0  0  0  3  0  0  0  0  0  0
  -25.9300   21.1480  -12.2000 C   0  0  0  0  0  3  0  0  0  0  0  0
  -26.9840   20.5770  -12.9110 C   0  0  0  0  0  3  0  0  0  0  0  0
  -25.0250   22.9020  -10.6250 C   0  0  2  0  0  3  0  0  0  0  0  0
  -25.2310   22.4300   -9.2810 O   0  0  0  0  0  0  0  0  0  0  0  0
  -24.7800   23.1610   -8.2510 C   0  0  0  0  0  0  0  0  0  0  0  0
  -24.2360   24.4530   -8.3800 C   0  0  0  0  0  0  0  0  0  0  0  0
  -24.9060   22.5240   -7.0140 C   0  0  0  0  0  3  0  0  0  0  0  0
  -24.1270   25.0540   -9.6950 C   0  0  0  0  0  0  0  0  0  0  0  0
  -23.8150   25.1010   -7.2050 C   0  0  0  0  0  0  0  0  0  0  0  0
  -23.3830   25.9470  -10.0180 O   0  0  0  0  0  0  0  0  0  0  0  0
  -25.0670   24.4380  -10.7320 C   0  0  1  0  0  3  0  0  0  0  0  0
  -23.9170   24.5040   -5.9450 C   0  0  0  0  0  3  0  0  0  0  0  0
  -24.4670   23.2180   -5.8840 C   0  0  0  0  0  0  0  0  0  0  0  0
  -24.6690   24.7460  -12.0450 O   0  0  0  0  0  0  0  0  0  0  0  0
  -24.5650   25.7260  -12.1470 H   0  0  0  0  0  0  0  0  0  0  0  0
  -23.3370   26.3460   -7.3600 O   0  0  0  0  0  0  0  0  0  0  0  0
  -22.5520   26.5310   -6.7790 H   0  0  0  0  0  0  0  0  0  0  0  0
  -24.6090   22.5590   -4.7160 O   0  0  0  0  0  0  0  0  0  0  0  0
  -25.5180   22.6550   -4.3310 H   0  0  0  0  0  0  0  0  0  0  0  0
  -31.9150   23.0250  -12.5340 C   0  0  0  0  0  0  0  0  0  0  0  0
  -32.9610   23.1420  -13.4490 C   0  0  0  0  0  3  0  0  0  0  0  0
  -34.2060   23.6170  -13.0240 C   0  0  0  0  0  0  0  0  0  0  0  0
  -34.3790   23.9620  -11.6700 C   0  0  0  0  0  0  0  0  0  0  0  0
  -33.3310   23.8420  -10.7610 C   0  0  0  0  0  3  0  0  0  0  0  0
  -32.0950   23.3670  -11.1950 C   0  0  0  0  0  3  0  0  0  0  0  0
  -35.1130   23.7040  -14.0260 O   0  0  0  0  0  0  0  0  0  0  0  0
  -35.5920   22.4890  -14.5930 C   0  0  0  0  0  1  0  0  0  0  0  0
  -35.6110   24.3980  -11.2850 O   0  0  0  0  0  0  0  0  0  0  0  0
  -36.3320   23.8910  -11.7340 H   0  0  0  0  0  0  0  0  0  0  0  0
  -31.4850   20.4570  -14.2080 C   0  0  0  0  0  2  0  0  0  0  0  0
  -31.0300   20.8620  -15.4770 O   0  0  0  0  0  0  0  0  0  0  0  0
  -31.2960   21.7910  -15.6630 H   0  0  0  0  0  0  0  0  0  0  0  0
  2  4  1  0  0  0  0
  2  7  1  0  0  0  0
  3 28  1  1  0  0  0
  3  1  1  0  0  0  0
  4 38  1  6  0  0  0
  4  3  1  0  0  0  0
  5  8  1  0  0  0  0
  6  1  1  0  0  0  0
  6  8  2  0  0  0  0
  7  6  1  0  0  0  0
  9  5  2  0  0  0  0
 10  7  2  0  0  0  0
 10  9  1  0  0  0  0
 11  5  1  6  0  0  0
 11 12  1  0  0  0  0
 12 13  1  0  0  0  0
 13 15  1  0  0  0  0
 14 13  2  0  0  0  0
 14 17  1  0  0  0  0
 15 21  2  0  0  0  0
 16 14  1  0  0  0  0
 17 20  2  0  0  0  0
 18 16  2  0  0  0  0
 19 22  1  6  0  0  0
 19 11  1  0  0  0  0
 19 16  1  0  0  0  0
 20 21  1  0  0  0  0
 21 26  1  0  0  0  0
 23 22  1  0  0  0  0
 24 17  1  0  0  0  0
 24 25  1  0  0  0  0
 26 27  1  0  0  0  0
 28 33  1  0  0  0  0
 29 30  1  0  0  0  0
 29 28  2  0  0  0  0
 30 31  2  0  0  0  0
 31 36  1  0  0  0  0
 31 32  1  0  0  0  0
 33 32  2  0  0  0  0
 34 30  1  0  0  0  0
 35 34  1  0  0  0  0
 37 36  1  0  0  0  0
 39 38  1  0  0  0  0
 40 39  1  0  0  0  0
M  END
>  <MODEL>
3

>  <REMARK>
 VINA RESULT:    -8.799     17.305     20.942
 INTER + INTRA:         -13.077
 INTER:                 -12.452
 INTRA:                  -0.626
 UNBOUND:                -0.934
  9 active torsions:
  status: ('A' for Active; 'I' for Inactive)
    1  A    between atoms: O4_4  and  C5_15 
    2  A    between atoms: O5_5  and  C10_20 
    3  A    between atoms: O7_7  and  C18_28 
    4  A    between atoms: O8_8  and  C20_30 
    5  A    between atoms: O9_9  and  C22_32 
    6  A    between atoms: O10_10  and  C24_34 
    7  A    between atoms: C1_11  and  C8_18 
    8  A    between atoms: C2_12  and  C10_20 
    9  A    between atoms: C3_13  and  C4_14 

>  <TORSDO>
F 9

$$$$
./Silimarina.pdbqt
 OpenBabel10282519553D

 40 44  0  0  1  0  0  0  0  0999 V2000
  -33.9480   18.0090  -17.5690 O   0  0  0  0  0  0  0  0  0  0  0  0
  -34.1080   20.1270  -19.4950 O   0  0  0  0  0  0  0  0  0  0  0  0
  -34.8290   17.9540  -18.7030 C   0  0  1  0  0  3  0  0  0  0  0  0
  -34.2070   18.7470  -19.8680 C   0  0  1  0  0  3  0  0  0  0  0  0
  -32.4260   20.7600  -15.7740 C   0  0  0  0  0  0  0  0  0  0  0  0
  -33.4920   19.2700  -17.3150 C   0  0  0  0  0  0  0  0  0  0  0  0
  -33.5530   20.3040  -18.2610 C   0  0  0  0  0  0  0  0  0  0  0  0
  -32.9210   19.4860  -16.0660 C   0  0  0  0  0  3  0  0  0  0  0  0
  -32.5030   21.7940  -16.7060 C   0  0  0  0  0  3  0  0  0  0  0  0
  -33.0690   21.5730  -17.9610 C   0  0  0  0  0  3  0  0  0  0  0  0
  -31.7860   20.9650  -14.4320 C   0  0  2  0  0  3  0  0  0  0  0  0
  -32.6210   21.9250  -13.7590 O   0  0  0  0  0  0  0  0  0  0  0  0
  -32.0890   22.7100  -12.8110 C   0  0  0  0  0  0  0  0  0  0  0  0
  -30.7140   22.7670  -12.5160 C   0  0  0  0  0  0  0  0  0  0  0  0
  -33.0330   23.4860  -12.1320 C   0  0  0  0  0  3  0  0  0  0  0  0
  -29.7890   21.9290  -13.2540 C   0  0  0  0  0  0  0  0  0  0  0  0
  -30.3040   23.6490  -11.4990 C   0  0  0  0  0  0  0  0  0  0  0  0
  -28.6870   21.5900  -12.9000 O   0  0  0  0  0  0  0  0  0  0  0  0
  -30.3330   21.4510  -14.6000 C   0  0  1  0  0  3  0  0  0  0  0  0
  -31.2090   24.4430  -10.7890 C   0  0  0  0  0  3  0  0  0  0  0  0
  -32.5630   24.3390  -11.1300 C   0  0  0  0  0  0  0  0  0  0  0  0
  -29.6120   20.3500  -15.0940 O   0  0  0  0  0  0  0  0  0  0  0  0
  -29.5720   19.6360  -14.4080 H   0  0  0  0  0  0  0  0  0  0  0  0
  -28.9820   23.7070  -11.2710 O   0  0  0  0  0  0  0  0  0  0  0  0
  -28.4460   23.3380  -12.0230 H   0  0  0  0  0  0  0  0  0  0  0  0
  -33.5120   25.0650  -10.5060 O   0  0  0  0  0  0  0  0  0  0  0  0
  -34.4170   24.9170  -10.8830 H   0  0  0  0  0  0  0  0  0  0  0  0
  -34.9500   16.4970  -19.0310 C   0  0  0  0  0  0  0  0  0  0  0  0
  -34.3550   15.5500  -18.1990 C   0  0  0  0  0  3  0  0  0  0  0  0
  -34.4520   14.1900  -18.5120 C   0  0  0  0  0  0  0  0  0  0  0  0
  -35.1600   13.8050  -19.6670 C   0  0  0  0  0  0  0  0  0  0  0  0
  -35.7520   14.7560  -20.4930 C   0  0  0  0  0  3  0  0  0  0  0  0
  -35.6500   16.1080  -20.1720 C   0  0  0  0  0  3  0  0  0  0  0  0
  -33.8020   13.3920  -17.6310 O   0  0  0  0  0  0  0  0  0  0  0  0
  -32.5700   12.8140  -18.0480 C   0  0  0  0  0  1  0  0  0  0  0  0
  -35.2550   12.4720  -19.9300 O   0  0  0  0  0  0  0  0  0  0  0  0
  -35.6050   12.3040  -20.8390 H   0  0  0  0  0  0  0  0  0  0  0  0
  -35.0840   18.7700  -21.1280 C   0  0  0  0  0  2  0  0  0  0  0  0
  -36.2380   19.5400  -20.8940 O   0  0  0  0  0  0  0  0  0  0  0  0
  -36.0850   20.4810  -21.1360 H   0  0  0  0  0  0  0  0  0  0  0  0
  1  6  1  0  0  0  0
  2  7  1  0  0  0  0
  3 28  1  6  0  0  0
  3  1  1  0  0  0  0
  4 38  1  6  0  0  0
  4  2  1  0  0  0  0
  4  3  1  0  0  0  0
  6  8  2  0  0  0  0
  7 10  2  0  0  0  0
  7  6  1  0  0  0  0
  8  5  1  0  0  0  0
  9  5  2  0  0  0  0
 10  9  1  0  0  0  0
 11  5  1  6  0  0  0
 11 12  1  0  0  0  0
 12 13  1  0  0  0  0
 13 14  2  0  0  0  0
 13 15  1  0  0  0  0
 14 17  1  0  0  0  0
 15 21  2  0  0  0  0
 16 18  2  0  0  0  0
 16 14  1  0  0  0  0
 17 24  1  0  0  0  0
 17 20  2  0  0  0  0
 19 22  1  1  0  0  0
 19 11  1  0  0  0  0
 19 16  1  0  0  0  0
 21 20  1  0  0  0  0
 21 26  1  0  0  0  0
 22 23  1  0  0  0  0
 25 24  1  0  0  0  0
 27 26  1  0  0  0  0
 28 29  1  0  0  0  0
 30 29  2  0  0  0  0
 30 34  1  0  0  0  0
 31 30  1  0  0  0  0
 32 33  1  0  0  0  0
 32 31  2  0  0  0  0
 33 28  2  0  0  0  0
 35 34  1  0  0  0  0
 36 31  1  0  0  0  0
 37 36  1  0  0  0  0
 38 39  1  0  0  0  0
 40 39  1  0  0  0  0
M  END
>  <MODEL>
4

>  <REMARK>
 VINA RESULT:    -8.434     17.791     23.155
 INTER + INTRA:         -12.573
 INTER:                 -12.357
 INTRA:                  -0.216
 UNBOUND:                -0.934
  9 active torsions:
  status: ('A' for Active; 'I' for Inactive)
    1  A    between atoms: O4_4  and  C5_15 
    2  A    between atoms: O5_5  and  C10_20 
    3  A    between atoms: O7_7  and  C18_28 
    4  A    between atoms: O8_8  and  C20_30 
    5  A    between atoms: O9_9  and  C22_32 
    6  A    between atoms: O10_10  and  C24_34 
    7  A    between atoms: C1_11  and  C8_18 
    8  A    between atoms: C2_12  and  C10_20 
    9  A    between atoms: C3_13  and  C4_14 

>  <TORSDO>
F 9

$$$$
./Silimarina.pdbqt
 OpenBabel10282519553D

 40 44  0  0  1  0  0  0  0  0999 V2000
  -33.9940   22.4490  -14.6220 O   0  0  0  0  0  0  0  0  0  0  0  0
  -36.7920   22.6130  -14.0180 O   0  0  0  0  0  0  0  0  0  0  0  0
  -34.5450   23.4940  -13.8040 C   0  0  1  0  0  3  0  0  0  0  0  0
  -35.7830   22.9570  -13.0610 C   0  0  1  0  0  3  0  0  0  0  0  0
  -35.4270   20.3070  -17.1640 C   0  0  0  0  0  0  0  0  0  0  0  0
  -34.9430   21.7910  -15.3500 C   0  0  0  0  0  0  0  0  0  0  0  0
  -36.3110   21.8550  -15.0460 C   0  0  0  0  0  0  0  0  0  0  0  0
  -34.4880   21.0100  -16.4060 C   0  0  0  0  0  3  0  0  0  0  0  0
  -36.7900   20.3850  -16.8760 C   0  0  0  0  0  3  0  0  0  0  0  0
  -37.2430   21.1620  -15.8110 C   0  0  0  0  0  3  0  0  0  0  0  0
  -34.9140   19.4450  -18.2810 C   0  0  2  0  0  3  0  0  0  0  0  0
  -35.4890   18.1470  -18.0500 O   0  0  0  0  0  0  0  0  0  0  0  0
  -34.8560   17.0560  -18.5070 C   0  0  0  0  0  0  0  0  0  0  0  0
  -33.5720   17.0740  -19.0840 C   0  0  0  0  0  0  0  0  0  0  0  0
  -35.5900   15.8760  -18.3520 C   0  0  0  0  0  3  0  0  0  0  0  0
  -32.8690   18.3340  -19.2210 C   0  0  0  0  0  0  0  0  0  0  0  0
  -33.0330   15.8460  -19.5080 C   0  0  0  0  0  0  0  0  0  0  0  0
  -31.9710   18.5770  -19.9890 O   0  0  0  0  0  0  0  0  0  0  0  0
  -33.3730   19.4260  -18.2770 C   0  0  1  0  0  3  0  0  0  0  0  0
  -33.7290   14.6400  -19.3780 C   0  0  0  0  0  3  0  0  0  0  0  0
  -35.0020   14.6900  -18.7970 C   0  0  0  0  0  0  0  0  0  0  0  0
  -32.9700   20.7060  -18.6960 O   0  0  0  0  0  0  0  0  0  0  0  0
  -33.1600   21.3710  -17.9860 H   0  0  0  0  0  0  0  0  0  0  0  0
  -31.7920   15.8950  -20.0170 O   0  0  0  0  0  0  0  0  0  0  0  0
  -31.1170   16.1990  -19.3540 H   0  0  0  0  0  0  0  0  0  0  0  0
  -35.7500   13.5810  -18.6260 O   0  0  0  0  0  0  0  0  0  0  0  0
  -35.5060   12.8540  -19.2550 H   0  0  0  0  0  0  0  0  0  0  0  0
  -33.4480   23.8620  -12.8530 C   0  0  0  0  0  0  0  0  0  0  0  0
  -32.2820   23.0980  -12.8120 C   0  0  0  0  0  3  0  0  0  0  0  0
  -31.2640   23.4300  -11.9130 C   0  0  0  0  0  0  0  0  0  0  0  0
  -31.4380   24.5410  -11.0660 C   0  0  0  0  0  0  0  0  0  0  0  0
  -32.6030   25.3000  -11.1110 C   0  0  0  0  0  3  0  0  0  0  0  0
  -33.6110   24.9620  -12.0120 C   0  0  0  0  0  3  0  0  0  0  0  0
  -30.2080   22.5830  -11.9670 O   0  0  0  0  0  0  0  0  0  0  0  0
  -30.0020   21.8600  -13.1760 C   0  0  0  0  0  1  0  0  0  0  0  0
  -30.4160   24.8500  -10.2180 O   0  0  0  0  0  0  0  0  0  0  0  0
  -30.3590   24.2090   -9.4680 H   0  0  0  0  0  0  0  0  0  0  0  0
  -36.4640   24.0070  -12.1700 C   0  0  0  0  0  2  0  0  0  0  0  0
  -37.2270   23.3680  -11.1760 O   0  0  0  0  0  0  0  0  0  0  0  0
  -37.0230   22.4060  -11.1430 H   0  0  0  0  0  0  0  0  0  0  0  0
  1  3  1  0  0  0  0
  2  4  1  0  0  0  0
  3  4  1  0  0  0  0
  3 28  1  1  0  0  0
  4 38  1  1  0  0  0
  5  9  2  0  0  0  0
  5  8  1  0  0  0  0
  6  7  1  0  0  0  0
  6  1  1  0  0  0  0
  7  2  1  0  0  0  0
  8  6  2  0  0  0  0
  9 10  1  0  0  0  0
 10  7  2  0  0  0  0
 11 19  1  0  0  0  0
 11 12  1  0  0  0  0
 11  5  1  1  0  0  0
 13 15  1  0  0  0  0
 13 12  1  0  0  0  0
 14 13  2  0  0  0  0
 16 14  1  0  0  0  0
 16 19  1  0  0  0  0
 17 20  2  0  0  0  0
 17 14  1  0  0  0  0
 18 16  2  0  0  0  0
 19 22  1  6  0  0  0
 20 21  1  0  0  0  0
 21 26  1  0  0  0  0
 21 15  2  0  0  0  0
 22 23  1  0  0  0  0
 24 17  1  0  0  0  0
 24 25  1  0  0  0  0
 27 26  1  0  0  0  0
 28 29  2  0  0  0  0
 28 33  1  0  0  0  0
 29 30  1  0  0  0  0
 30 31  2  0  0  0  0
 31 36  1  0  0  0  0
 32 31  1  0  0  0  0
 33 32  2  0  0  0  0
 34 30  1  0  0  0  0
 35 34  1  0  0  0  0
 36 37  1  0  0  0  0
 38 39  1  0  0  0  0
 39 40  1  0  0  0  0
M  END
>  <MODEL>
5

>  <REMARK>
 VINA RESULT:    -8.366     16.426     19.936
 INTER + INTRA:         -12.479
 INTER:                 -12.602
 INTRA:                   0.122
 UNBOUND:                -0.934
  9 active torsions:
  status: ('A' for Active; 'I' for Inactive)
    1  A    between atoms: O4_4  and  C5_15 
    2  A    between atoms: O5_5  and  C10_20 
    3  A    between atoms: O7_7  and  C18_28 
    4  A    between atoms: O8_8  and  C20_30 
    5  A    between atoms: O9_9  and  C22_32 
    6  A    between atoms: O10_10  and  C24_34 
    7  A    between atoms: C1_11  and  C8_18 
    8  A    between atoms: C2_12  and  C10_20 
    9  A    between atoms: C3_13  and  C4_14 

>  <TORSDO>
F 9

$$$$
./Silimarina.pdbqt
 OpenBabel10282519553D

 40 44  0  0  1  0  0  0  0  0999 V2000
  -42.7030   25.8840    1.9450 O   0  0  0  0  0  0  0  0  0  0  0  0
  -43.2390   24.1400    4.1560 O   0  0  0  0  0  0  0  0  0  0  0  0
  -42.7960   24.4580    1.7960 C   0  0  1  0  0  3  0  0  0  0  0  0
  -43.7720   23.9000    2.8480 C   0  0  1  0  0  3  0  0  0  0  0  0
  -41.9370   28.0130    4.7710 C   0  0  0  0  0  0  0  0  0  0  0  0
  -42.5360   26.2710    3.2430 C   0  0  0  0  0  0  0  0  0  0  0  0
  -42.8140   25.4250    4.3280 C   0  0  0  0  0  0  0  0  0  0  0  0
  -42.1030   27.5750    3.4550 C   0  0  0  0  0  3  0  0  0  0  0  0
  -42.1940   27.1680    5.8510 C   0  0  0  0  0  3  0  0  0  0  0  0
  -42.6360   25.8630    5.6360 C   0  0  0  0  0  3  0  0  0  0  0  0
  -41.4980   29.4330    4.9800 C   0  0  2  0  0  3  0  0  0  0  0  0
  -41.7860   30.1030    3.7390 O   0  0  0  0  0  0  0  0  0  0  0  0
  -41.0690   31.1820    3.3920 C   0  0  0  0  0  0  0  0  0  0  0  0
  -39.9370   31.6350    4.0950 C   0  0  0  0  0  0  0  0  0  0  0  0
  -41.5460   31.8270    2.2470 C   0  0  0  0  0  3  0  0  0  0  0  0
  -39.4990   30.9230    5.2790 C   0  0  0  0  0  0  0  0  0  0  0  0
  -39.2810   32.7780    3.6020 C   0  0  0  0  0  0  0  0  0  0  0  0
  -38.8150   31.3620    6.1700 O   0  0  0  0  0  0  0  0  0  0  0  0
  -40.0030   29.4810    5.3520 C   0  0  1  0  0  3  0  0  0  0  0  0
  -39.7210   33.4590    2.4640 C   0  0  0  0  0  3  0  0  0  0  0  0
  -40.8540   32.9580    1.8110 C   0  0  0  0  0  0  0  0  0  0  0  0
  -39.9110   28.9600    6.6550 O   0  0  0  0  0  0  0  0  0  0  0  0
  -39.1890   28.2820    6.6980 H   0  0  0  0  0  0  0  0  0  0  0  0
  -38.1830   33.1590    4.2730 O   0  0  0  0  0  0  0  0  0  0  0  0
  -38.2990   33.1090    5.2600 H   0  0  0  0  0  0  0  0  0  0  0  0
  -41.3540   33.5430    0.7040 O   0  0  0  0  0  0  0  0  0  0  0  0
  -40.8400   34.3450    0.4290 H   0  0  0  0  0  0  0  0  0  0  0  0
  -43.3040   24.2450    0.4030 C   0  0  0  0  0  0  0  0  0  0  0  0
  -42.6970   23.2930   -0.4160 C   0  0  0  0  0  3  0  0  0  0  0  0
  -43.1590   23.1050   -1.7230 C   0  0  0  0  0  0  0  0  0  0  0  0
  -44.2400   23.8810   -2.1830 C   0  0  0  0  0  0  0  0  0  0  0  0
  -44.8420   24.8290   -1.3600 C   0  0  0  0  0  3  0  0  0  0  0  0
  -44.3750   25.0080   -0.0600 C   0  0  0  0  0  3  0  0  0  0  0  0
  -42.4560   22.1710   -2.4070 O   0  0  0  0  0  0  0  0  0  0  0  0
  -41.1910   22.5540   -2.9380 C   0  0  0  0  0  1  0  0  0  0  0  0
  -44.6800   23.6550   -3.4520 O   0  0  0  0  0  0  0  0  0  0  0  0
  -45.6180   23.9450   -3.5700 H   0  0  0  0  0  0  0  0  0  0  0  0
  -43.9260   22.3730    2.7890 C   0  0  0  0  0  2  0  0  0  0  0  0
  -42.8320   21.7570    3.4240 O   0  0  0  0  0  0  0  0  0  0  0  0
  -42.8280   21.9610    4.3870 H   0  0  0  0  0  0  0  0  0  0  0  0
  1  6  1  0  0  0  0
  2  7  1  0  0  0  0
  3 28  1  6  0  0  0
  3  1  1  0  0  0  0
  3  4  1  0  0  0  0
  4 38  1  6  0  0  0
  4  2  1  0  0  0  0
  5  9  1  0  0  0  0
  6  8  1  0  0  0  0
  6  7  2  0  0  0  0
  7 10  1  0  0  0  0
  8  5  2  0  0  0  0
 10  9  2  0  0  0  0
 11  5  1  6  0  0  0
 11 19  1  0  0  0  0
 12 11  1  0  0  0  0
 13 12  1  0  0  0  0
 13 14  1  0  0  0  0
 14 16  1  0  0  0  0
 15 13  2  0  0  0  0
 16 19  1  0  0  0  0
 16 18  2  0  0  0  0
 17 14  2  0  0  0  0
 17 24  1  0  0  0  0
 19 22  1  1  0  0  0
 20 17  1  0  0  0  0
 21 15  1  0  0  0  0
 21 20  2  0  0  0  0
 22 23  1  0  0  0  0
 24 25  1  0  0  0  0
 26 21  1  0  0  0  0
 27 26  1  0  0  0  0
 29 28  2  0  0  0  0
 30 29  1  0  0  0  0
 31 30  2  0  0  0  0
 31 32  1  0  0  0  0
 32 33  2  0  0  0  0
 33 28  1  0  0  0  0
 34 30  1  0  0  0  0
 35 34  1  0  0  0  0
 36 31  1  0  0  0  0
 37 36  1  0  0  0  0
 38 39  1  0  0  0  0
 39 40  1  0  0  0  0
M  END
>  <MODEL>
6

>  <REMARK>
 VINA RESULT:    -8.356      2.556      9.995
 INTER + INTRA:         -12.465
 INTER:                 -11.793
 INTRA:                  -0.673
 UNBOUND:                -0.934
  9 active torsions:
  status: ('A' for Active; 'I' for Inactive)
    1  A    between atoms: O4_4  and  C5_15 
    2  A    between atoms: O5_5  and  C10_20 
    3  A    between atoms: O7_7  and  C18_28 
    4  A    between atoms: O8_8  and  C20_30 
    5  A    between atoms: O9_9  and  C22_32 
    6  A    between atoms: O10_10  and  C24_34 
    7  A    between atoms: C1_11  and  C8_18 
    8  A    between atoms: C2_12  and  C10_20 
    9  A    between atoms: C3_13  and  C4_14 

>  <TORSDO>
F 9

$$$$
./Silimarina.pdbqt
 OpenBabel10282519553D

 40 44  0  0  1  0  0  0  0  0999 V2000
  -43.9640   27.3460   -2.1630 O   0  0  0  0  0  0  0  0  0  0  0  0
  -46.6900   28.0050   -1.5660 O   0  0  0  0  0  0  0  0  0  0  0  0
  -45.0520   26.4500   -2.4440 C   0  0  1  0  0  3  0  0  0  0  0  0
  -46.3220   27.2710   -2.7400 C   0  0  1  0  0  3  0  0  0  0  0  0
  -43.5700   30.0690    0.1900 C   0  0  0  0  0  0  0  0  0  0  0  0
  -44.3060   28.3360   -1.2880 C   0  0  0  0  0  0  0  0  0  0  0  0
  -45.6390   28.6720   -1.0070 C   0  0  0  0  0  0  0  0  0  0  0  0
  -43.2600   29.0370   -0.6980 C   0  0  0  0  0  3  0  0  0  0  0  0
  -44.8940   30.3920    0.4860 C   0  0  0  0  0  3  0  0  0  0  0  0
  -45.9420   29.6940   -0.1130 C   0  0  0  0  0  3  0  0  0  0  0  0
  -42.4280   30.8330    0.7920 C   0  0  2  0  0  3  0  0  0  0  0  0
  -42.0410   30.0790    1.9540 O   0  0  0  0  0  0  0  0  0  0  0  0
  -41.4500   30.7080    2.9810 C   0  0  0  0  0  0  0  0  0  0  0  0
  -41.3050   32.1060    3.0700 C   0  0  0  0  0  0  0  0  0  0  0  0
  -40.9880   29.8440    3.9780 C   0  0  0  0  0  3  0  0  0  0  0  0
  -41.8000   32.9450    1.9970 C   0  0  0  0  0  0  0  0  0  0  0  0
  -40.6710   32.6210    4.2150 C   0  0  0  0  0  0  0  0  0  0  0  0
  -41.4460   34.0700    1.7420 O   0  0  0  0  0  0  0  0  0  0  0  0
  -42.8650   32.2720    1.1310 C   0  0  1  0  0  3  0  0  0  0  0  0
  -40.1890   31.7980    5.2370 C   0  0  0  0  0  3  0  0  0  0  0  0
  -40.3640   30.4170    5.0880 C   0  0  0  0  0  0  0  0  0  0  0  0
  -43.0280   32.9280   -0.1020 O   0  0  0  0  0  0  0  0  0  0  0  0
  -42.6520   32.3730   -0.8330 H   0  0  0  0  0  0  0  0  0  0  0  0
  -40.5840   33.9590    4.2850 O   0  0  0  0  0  0  0  0  0  0  0  0
  -41.4540   34.3900    4.5000 H   0  0  0  0  0  0  0  0  0  0  0  0
  -39.9370   29.5410    6.0200 O   0  0  0  0  0  0  0  0  0  0  0  0
  -40.2990   28.6280    5.8820 H   0  0  0  0  0  0  0  0  0  0  0  0
  -44.6110   25.6660   -3.6410 C   0  0  0  0  0  0  0  0  0  0  0  0
  -44.7040   24.2740   -3.6280 C   0  0  0  0  0  3  0  0  0  0  0  0
  -44.2770   23.5380   -4.7380 C   0  0  0  0  0  0  0  0  0  0  0  0
  -43.7640   24.2250   -5.8550 C   0  0  0  0  0  0  0  0  0  0  0  0
  -43.6740   25.6140   -5.8620 C   0  0  0  0  0  3  0  0  0  0  0  0
  -44.1040   26.3380   -4.7520 C   0  0  0  0  0  3  0  0  0  0  0  0
  -44.4000   22.2000   -4.5690 O   0  0  0  0  0  0  0  0  0  0  0  0
  -45.1290   21.7410   -3.4360 C   0  0  0  0  0  1  0  0  0  0  0  0
  -43.3790   23.4790   -6.9280 O   0  0  0  0  0  0  0  0  0  0  0  0
  -44.1210   23.3520   -7.5680 H   0  0  0  0  0  0  0  0  0  0  0  0
  -47.5550   26.4030   -3.0320 C   0  0  0  0  0  2  0  0  0  0  0  0
  -48.6630   27.2250   -3.3080 O   0  0  0  0  0  0  0  0  0  0  0  0
  -48.7130   27.4320   -4.2690 H   0  0  0  0  0  0  0  0  0  0  0  0
  1  6  1  0  0  0  0
  2  7  1  0  0  0  0
  3 28  1  6  0  0  0
  3  1  1  0  0  0  0
  4 38  1  1  0  0  0
  4  3  1  0  0  0  0
  4  2  1  0  0  0  0
  5  9  1  0  0  0  0
  6  7  2  0  0  0  0
  6  8  1  0  0  0  0
  7 10  1  0  0  0  0
  8  5  2  0  0  0  0
 10  9  2  0  0  0  0
 11  5  1  1  0  0  0
 11 19  1  0  0  0  0
 11 12  1  0  0  0  0
 12 13  1  0  0  0  0
 13 14  2  0  0  0  0
 13 15  1  0  0  0  0
 14 17  1  0  0  0  0
 15 21  2  0  0  0  0
 16 14  1  0  0  0  0
 17 24  1  0  0  0  0
 17 20  2  0  0  0  0
 18 16  2  0  0  0  0
 19 22  1  6  0  0  0
 19 16  1  0  0  0  0
 21 20  1  0  0  0  0
 21 26  1  0  0  0  0
 23 22  1  0  0  0  0
 24 25  1  0  0  0  0
 27 26  1  0  0  0  0
 28 29  1  0  0  0  0
 30 34  1  0  0  0  0
 30 29  2  0  0  0  0
 31 30  1  0  0  0  0
 32 31  2  0  0  0  0
 32 33  1  0  0  0  0
 33 28  2  0  0  0  0
 34 35  1  0  0  0  0
 36 31  1  0  0  0  0
 37 36  1  0  0  0  0
 39 38  1  0  0  0  0
 40 39  1  0  0  0  0
M  END
>  <MODEL>
7

>  <REMARK>
 VINA RESULT:    -8.342      2.043      9.452
 INTER + INTRA:         -12.446
 INTER:                 -11.724
 INTRA:                  -0.722
 UNBOUND:                -0.934
  9 active torsions:
  status: ('A' for Active; 'I' for Inactive)
    1  A    between atoms: O4_4  and  C5_15 
    2  A    between atoms: O5_5  and  C10_20 
    3  A    between atoms: O7_7  and  C18_28 
    4  A    between atoms: O8_8  and  C20_30 
    5  A    between atoms: O9_9  and  C22_32 
    6  A    between atoms: O10_10  and  C24_34 
    7  A    between atoms: C1_11  and  C8_18 
    8  A    between atoms: C2_12  and  C10_20 
    9  A    between atoms: C3_13  and  C4_14 

>  <TORSDO>
F 9

$$$$
./Silimarina.pdbqt
 OpenBabel10282519553D

 40 44  0  0  1  0  0  0  0  0999 V2000
  -35.7340   19.4760  -17.2000 O   0  0  0  0  0  0  0  0  0  0  0  0
  -38.0120   20.1310  -18.8130 O   0  0  0  0  0  0  0  0  0  0  0  0
  -36.3640   18.5200  -18.0670 C   0  0  1  0  0  3  0  0  0  0  0  0
  -36.9770   19.2550  -19.2740 C   0  0  1  0  0  3  0  0  0  0  0  0
  -36.9210   22.5060  -15.6120 C   0  0  0  0  0  0  0  0  0  0  0  0
  -36.5190   20.5660  -16.9560 C   0  0  0  0  0  0  0  0  0  0  0  0
  -37.6240   20.8990  -17.7540 C   0  0  0  0  0  0  0  0  0  0  0  0
  -36.1530   21.3710  -15.8830 C   0  0  0  0  0  3  0  0  0  0  0  0
  -38.0320   22.8280  -16.3920 C   0  0  0  0  0  3  0  0  0  0  0  0
  -38.3920   22.0240  -17.4730 C   0  0  0  0  0  3  0  0  0  0  0  0
  -36.4920   23.3780  -14.4680 C   0  0  2  0  0  3  0  0  0  0  0  0
  -35.0600   23.2450  -14.4100 O   0  0  0  0  0  0  0  0  0  0  0  0
  -34.4290   23.4390  -13.2420 C   0  0  0  0  0  0  0  0  0  0  0  0
  -35.0870   23.6250  -12.0120 C   0  0  0  0  0  0  0  0  0  0  0  0
  -33.0350   23.4320  -13.3510 C   0  0  0  0  0  3  0  0  0  0  0  0
  -36.5360   23.6290  -11.9700 C   0  0  0  0  0  0  0  0  0  0  0  0
  -34.2880   23.8050  -10.8680 C   0  0  0  0  0  0  0  0  0  0  0  0
  -37.2300   24.1220  -11.1150 O   0  0  0  0  0  0  0  0  0  0  0  0
  -37.1870   22.9340  -13.1660 C   0  0  1  0  0  3  0  0  0  0  0  0
  -32.8910   23.8100  -10.9260 C   0  0  0  0  0  3  0  0  0  0  0  0
  -32.2980   23.6200  -12.1800 C   0  0  0  0  0  0  0  0  0  0  0  0
  -38.5390   23.2930  -13.3080 O   0  0  0  0  0  0  0  0  0  0  0  0
  -39.0960   22.4810  -13.4220 H   0  0  0  0  0  0  0  0  0  0  0  0
  -34.9470   23.9420   -9.7070 O   0  0  0  0  0  0  0  0  0  0  0  0
  -35.0210   23.0870   -9.2050 H   0  0  0  0  0  0  0  0  0  0  0  0
  -30.9590   23.6060  -12.3390 O   0  0  0  0  0  0  0  0  0  0  0  0
  -30.4800   24.0590  -11.5980 H   0  0  0  0  0  0  0  0  0  0  0  0
  -35.2660   17.5920  -18.4860 C   0  0  0  0  0  0  0  0  0  0  0  0
  -34.0550   18.1150  -18.9410 C   0  0  0  0  0  3  0  0  0  0  0  0
  -33.0340   17.2510  -19.3500 C   0  0  0  0  0  0  0  0  0  0  0  0
  -33.2510   15.8610  -19.2850 C   0  0  0  0  0  0  0  0  0  0  0  0
  -34.4600   15.3450  -18.8300 C   0  0  0  0  0  3  0  0  0  0  0  0
  -35.4710   16.2150  -18.4250 C   0  0  0  0  0  3  0  0  0  0  0  0
  -31.9320   17.9010  -19.7930 O   0  0  0  0  0  0  0  0  0  0  0  0
  -32.0860   19.2520  -20.2150 C   0  0  0  0  0  1  0  0  0  0  0  0
  -32.2270   15.0480  -19.6690 O   0  0  0  0  0  0  0  0  0  0  0  0
  -31.3850   15.5530  -19.7830 H   0  0  0  0  0  0  0  0  0  0  0  0
  -37.6980   18.3200  -20.2570 C   0  0  0  0  0  2  0  0  0  0  0  0
  -39.0910   18.4760  -20.1310 O   0  0  0  0  0  0  0  0  0  0  0  0
  -39.3050   19.2060  -19.5080 H   0  0  0  0  0  0  0  0  0  0  0  0
  1  6  1  0  0  0  0
  2  7  1  0  0  0  0
  3 28  1  6  0  0  0
  3  1  1  0  0  0  0
  4 38  1  6  0  0  0
  4  2  1  0  0  0  0
  4  3  1  0  0  0  0
  6  8  2  0  0  0  0
  7 10  2  0  0  0  0
  7  6  1  0  0  0  0
  8  5  1  0  0  0  0
  9  5  2  0  0  0  0
 10  9  1  0  0  0  0
 11  5  1  6  0  0  0
 11 12  1  0  0  0  0
 11 19  1  0  0  0  0
 12 13  1  0  0  0  0
 13 14  1  0  0  0  0
 14 16  1  0  0  0  0
 14 17  2  0  0  0  0
 15 13  2  0  0  0  0
 15 21  1  0  0  0  0
 16 18  2  0  0  0  0
 17 24  1  0  0  0  0
 19 22  1  6  0  0  0
 19 16  1  0  0  0  0
 20 17  1  0  0  0  0
 21 20  2  0  0  0  0
 23 22  1  0  0  0  0
 24 25  1  0  0  0  0
 26 21  1  0  0  0  0
 26 27  1  0  0  0  0
 28 33  1  0  0  0  0
 29 28  2  0  0  0  0
 30 31  2  0  0  0  0
 30 29  1  0  0  0  0
 31 32  1  0  0  0  0
 32 33  2  0  0  0  0
 34 30  1  0  0  0  0
 35 34  1  0  0  0  0
 36 31  1  0  0  0  0
 37 36  1  0  0  0  0
 38 39  1  0  0  0  0
 39 40  1  0  0  0  0
M  END
>  <MODEL>
8

>  <REMARK>
 VINA RESULT:    -8.286     15.908     21.295
 INTER + INTRA:         -12.369
 INTER:                 -11.570
 INTRA:                  -0.799
 UNBOUND:                -0.934
  9 active torsions:
  status: ('A' for Active; 'I' for Inactive)
    1  A    between atoms: O4_4  and  C5_15 
    2  A    between atoms: O5_5  and  C10_20 
    3  A    between atoms: O7_7  and  C18_28 
    4  A    between atoms: O8_8  and  C20_30 
    5  A    between atoms: O9_9  and  C22_32 
    6  A    between atoms: O10_10  and  C24_34 
    7  A    between atoms: C1_11  and  C8_18 
    8  A    between atoms: C2_12  and  C10_20 
    9  A    between atoms: C3_13  and  C4_14 

>  <TORSDO>
F 9

$$$$
./Silimarina.pdbqt
 OpenBabel10282519553D

 40 44  0  0  1  0  0  0  0  0999 V2000
  -32.7940   24.9770  -19.1970 O   0  0  0  0  0  0  0  0  0  0  0  0
  -33.2060   22.9810  -21.2130 O   0  0  0  0  0  0  0  0  0  0  0  0
  -32.5660   25.2340  -20.5920 C   0  0  1  0  0  3  0  0  0  0  0  0
  -33.5190   24.3620  -21.4310 C   0  0  1  0  0  3  0  0  0  0  0  0
  -32.8300   21.9360  -17.2320 C   0  0  0  0  0  0  0  0  0  0  0  0
  -32.8650   23.6450  -18.9080 C   0  0  0  0  0  0  0  0  0  0  0  0
  -33.0840   22.6670  -19.8900 C   0  0  0  0  0  0  0  0  0  0  0  0
  -32.7440   23.2890  -17.5700 C   0  0  0  0  0  3  0  0  0  0  0  0
  -33.0280   20.9610  -18.2090 C   0  0  0  0  0  3  0  0  0  0  0  0
  -33.1570   21.3200  -19.5500 C   0  0  0  0  0  3  0  0  0  0  0  0
  -32.7270   21.5750  -15.7790 C   0  0  2  0  0  3  0  0  0  0  0  0
  -33.6400   22.4610  -15.1060 O   0  0  0  0  0  0  0  0  0  0  0  0
  -33.4210   22.7780  -13.8210 C   0  0  0  0  0  0  0  0  0  0  0  0
  -32.2630   22.4170  -13.1060 C   0  0  0  0  0  0  0  0  0  0  0  0
  -34.4560   23.5180  -13.2420 C   0  0  0  0  0  3  0  0  0  0  0  0
  -31.2300   21.6420  -13.7650 C   0  0  0  0  0  0  0  0  0  0  0  0
  -32.1710   22.8320  -11.7650 C   0  0  0  0  0  0  0  0  0  0  0  0
  -30.3910   20.9600  -13.2300 O   0  0  0  0  0  0  0  0  0  0  0  0
  -31.2740   21.7300  -15.2910 C   0  0  1  0  0  3  0  0  0  0  0  0
  -33.1810   23.5700  -11.1410 C   0  0  0  0  0  3  0  0  0  0  0  0
  -34.3070   23.8970  -11.9060 C   0  0  0  0  0  0  0  0  0  0  0  0
  -30.5500   20.6870  -15.8950 O   0  0  0  0  0  0  0  0  0  0  0  0
  -31.1260   19.8860  -15.9910 H   0  0  0  0  0  0  0  0  0  0  0  0
  -31.0370   22.5040  -11.1260 O   0  0  0  0  0  0  0  0  0  0  0  0
  -31.1440   22.4890  -10.1380 H   0  0  0  0  0  0  0  0  0  0  0  0
  -35.3320   24.6080  -11.3950 O   0  0  0  0  0  0  0  0  0  0  0  0
  -35.5020   25.4480  -11.8940 H   0  0  0  0  0  0  0  0  0  0  0  0
  -32.8510   26.6930  -20.7710 C   0  0  0  0  0  0  0  0  0  0  0  0
  -31.8820   27.5230  -21.3320 C   0  0  0  0  0  3  0  0  0  0  0  0
  -32.1390   28.8900  -21.4850 C   0  0  0  0  0  0  0  0  0  0  0  0
  -33.3850   29.3990  -21.0700 C   0  0  0  0  0  0  0  0  0  0  0  0
  -34.3490   28.5650  -20.5110 C   0  0  0  0  0  3  0  0  0  0  0  0
  -34.0830   27.2050  -20.3650 C   0  0  0  0  0  3  0  0  0  0  0  0
  -31.0970   29.5730  -22.0150 O   0  0  0  0  0  0  0  0  0  0  0  0
  -29.9380   29.7440  -21.2050 C   0  0  0  0  0  1  0  0  0  0  0  0
  -33.6120   30.7300  -21.2550 O   0  0  0  0  0  0  0  0  0  0  0  0
  -32.9520   31.1280  -21.8740 H   0  0  0  0  0  0  0  0  0  0  0  0
  -33.3400   24.5450  -22.9450 C   0  0  0  0  0  2  0  0  0  0  0  0
  -31.9970   24.3140  -23.2990 O   0  0  0  0  0  0  0  0  0  0  0  0
  -31.9390   23.8640  -24.1710 H   0  0  0  0  0  0  0  0  0  0  0  0
  1  6  1  0  0  0  0
  2  7  1  0  0  0  0
  3 28  1  1  0  0  0
  3  1  1  0  0  0  0
  4 38  1  6  0  0  0
  4  2  1  0  0  0  0
  4  3  1  0  0  0  0
  6  8  2  0  0  0  0
  7 10  2  0  0  0  0
  7  6  1  0  0  0  0
  8  5  1  0  0  0  0
  9  5  2  0  0  0  0
 10  9  1  0  0  0  0
 11  5  1  6  0  0  0
 11 19  1  0  0  0  0
 11 12  1  0  0  0  0
 12 13  1  0  0  0  0
 13 15  2  0  0  0  0
 13 14  1  0  0  0  0
 14 17  2  0  0  0  0
 15 21  1  0  0  0  0
 16 18  2  0  0  0  0
 16 14  1  0  0  0  0
 17 20  1  0  0  0  0
 17 24  1  0  0  0  0
 19 22  1  6  0  0  0
 19 16  1  0  0  0  0
 21 26  1  0  0  0  0
 21 20  2  0  0  0  0
 23 22  1  0  0  0  0
 24 25  1  0  0  0  0
 27 26  1  0  0  0  0
 28 33  1  0  0  0  0
 29 28  2  0  0  0  0
 30 29  1  0  0  0  0
 30 31  2  0  0  0  0
 31 32  1  0  0  0  0
 32 33  2  0  0  0  0
 34 30  1  0  0  0  0
 34 35  1  0  0  0  0
 36 31  1  0  0  0  0
 37 36  1  0  0  0  0
 39 38  1  0  0  0  0
 40 39  1  0  0  0  0
M  END
>  <MODEL>
9

>  <REMARK>
 VINA RESULT:    -8.225     18.097     22.089
 INTER + INTRA:         -12.284
 INTER:                 -11.267
 INTRA:                  -1.017
 UNBOUND:                -0.934
  9 active torsions:
  status: ('A' for Active; 'I' for Inactive)
    1  A    between atoms: O4_4  and  C5_15 
    2  A    between atoms: O5_5  and  C10_20 
    3  A    between atoms: O7_7  and  C18_28 
    4  A    between atoms: O8_8  and  C20_30 
    5  A    between atoms: O9_9  and  C22_32 
    6  A    between atoms: O10_10  and  C24_34 
    7  A    between atoms: C1_11  and  C8_18 
    8  A    between atoms: C2_12  and  C10_20 
    9  A    between atoms: C3_13  and  C4_14 

>  <TORSDO>
F 9

$$$$
./Silimarina.pdbqt
 OpenBabel10282519553D

 40 44  0  0  1  0  0  0  0  0999 V2000
   -5.9330   38.5730    9.1100 O   0  0  0  0  0  0  0  0  0  0  0  0
   -8.5600   39.0960   10.1330 O   0  0  0  0  0  0  0  0  0  0  0  0
   -6.3040   38.2790   10.4660 C   0  0  1  0  0  3  0  0  0  0  0  0
   -7.8060   37.9410   10.5210 C   0  0  1  0  0  3  0  0  0  0  0  0
   -7.2340   40.8970    6.6580 C   0  0  0  0  0  0  0  0  0  0  0  0
   -6.8040   39.4260    8.4970 C   0  0  0  0  0  0  0  0  0  0  0  0
   -8.0960   39.6710    8.9860 C   0  0  0  0  0  0  0  0  0  0  0  0
   -6.3640   40.0310    7.3240 C   0  0  0  0  0  3  0  0  0  0  0  0
   -8.5120   41.1570    7.1530 C   0  0  0  0  0  3  0  0  0  0  0  0
   -8.9540   40.5440    8.3240 C   0  0  0  0  0  3  0  0  0  0  0  0
   -6.7520   41.5160    5.3790 C   0  0  2  0  0  3  0  0  0  0  0  0
   -6.8570   40.4730    4.3930 O   0  0  0  0  0  0  0  0  0  0  0  0
   -6.0500   40.4970    3.3210 C   0  0  0  0  0  0  0  0  0  0  0  0
   -4.9880   41.4070    3.1550 C   0  0  0  0  0  0  0  0  0  0  0  0
   -6.3540   39.5200    2.3690 C   0  0  0  0  0  3  0  0  0  0  0  0
   -4.7320   42.4010    4.1780 C   0  0  0  0  0  0  0  0  0  0  0  0
   -4.2220   41.3020    1.9800 C   0  0  0  0  0  0  0  0  0  0  0  0
   -4.1370   43.4410    4.0380 O   0  0  0  0  0  0  0  0  0  0  0  0
   -5.3120   42.0390    5.5460 C   0  0  1  0  0  3  0  0  0  0  0  0
   -4.4880   40.3450    0.9970 C   0  0  0  0  0  3  0  0  0  0  0  0
   -5.5580   39.4700    1.2220 C   0  0  0  0  0  0  0  0  0  0  0  0
   -5.4030   43.1610    6.3890 O   0  0  0  0  0  0  0  0  0  0  0  0
   -5.5690   42.8710    7.3220 H   0  0  0  0  0  0  0  0  0  0  0  0
   -3.1940   42.1590    1.8720 O   0  0  0  0  0  0  0  0  0  0  0  0
   -2.4320   41.7820    1.3570 H   0  0  0  0  0  0  0  0  0  0  0  0
   -5.8930   38.5120    0.3350 O   0  0  0  0  0  0  0  0  0  0  0  0
   -6.3830   38.8690   -0.4490 H   0  0  0  0  0  0  0  0  0  0  0  0
   -5.4600   37.1030   10.8540 C   0  0  0  0  0  0  0  0  0  0  0  0
   -5.4180   35.9800   10.0270 C   0  0  0  0  0  3  0  0  0  0  0  0
   -4.6450   34.8740   10.3960 C   0  0  0  0  0  0  0  0  0  0  0  0
   -3.9160   34.9230   11.6000 C   0  0  0  0  0  0  0  0  0  0  0  0
   -3.9620   36.0450   12.4200 C   0  0  0  0  0  3  0  0  0  0  0  0
   -4.7340   37.1430   12.0430 C   0  0  0  0  0  3  0  0  0  0  0  0
   -4.7250   33.8510    9.5120 O   0  0  0  0  0  0  0  0  0  0  0  0
   -4.9570   34.1740    8.1450 C   0  0  0  0  0  1  0  0  0  0  0  0
   -3.1550   33.8370   11.9160 O   0  0  0  0  0  0  0  0  0  0  0  0
   -3.0790   33.7190   12.8950 H   0  0  0  0  0  0  0  0  0  0  0  0
   -8.3110   37.6320   11.9380 C   0  0  0  0  0  2  0  0  0  0  0  0
   -9.3090   38.5540   12.3020 O   0  0  0  0  0  0  0  0  0  0  0  0
  -10.0540   38.1010   12.7570 H   0  0  0  0  0  0  0  0  0  0  0  0
  1  3  1  0  0  0  0
  2  4  1  0  0  0  0
  3  4  1  0  0  0  0
  3 28  1  6  0  0  0
  4 38  1  1  0  0  0
  5  9  2  0  0  0  0
  5  8  1  0  0  0  0
  6  7  1  0  0  0  0
  6  1  1  0  0  0  0
  7  2  1  0  0  0  0
  8  6  2  0  0  0  0
  9 10  1  0  0  0  0
 10  7  2  0  0  0  0
 11 19  1  0  0  0  0
 11  5  1  1  0  0  0
 12 11  1  0  0  0  0
 13 12  1  0  0  0  0
 14 13  1  0  0  0  0
 14 16  1  0  0  0  0
 15 13  2  0  0  0  0
 16 19  1  0  0  0  0
 17 14  2  0  0  0  0
 18 16  2  0  0  0  0
 19 22  1  1  0  0  0
 20 21  2  0  0  0  0
 20 17  1  0  0  0  0
 21 15  1  0  0  0  0
 22 23  1  0  0  0  0
 24 17  1  0  0  0  0
 25 24  1  0  0  0  0
 26 21  1  0  0  0  0
 27 26  1  0  0  0  0
 28 33  1  0  0  0  0
 29 30  1  0  0  0  0
 29 28  2  0  0  0  0
 30 31  2  0  0  0  0
 31 36  1  0  0  0  0
 31 32  1  0  0  0  0
 33 32  2  0  0  0  0
 34 30  1  0  0  0  0
 35 34  1  0  0  0  0
 36 37  1  0  0  0  0
 38 39  1  0  0  0  0
 39 40  1  0  0  0  0
M  END
>  <MODEL>
10

>  <REMARK>
 VINA RESULT:    -8.183     37.268     39.618
 INTER + INTRA:         -12.227
 INTER:                 -11.280
 INTRA:                  -0.947
 UNBOUND:                -0.934
  9 active torsions:
  status: ('A' for Active; 'I' for Inactive)
    1  A    between atoms: O4_4  and  C5_15 
    2  A    between atoms: O5_5  and  C10_20 
    3  A    between atoms: O7_7  and  C18_28 
    4  A    between atoms: O8_8  and  C20_30 
    5  A    between atoms: O9_9  and  C22_32 
    6  A    between atoms: O10_10  and  C24_34 
    7  A    between atoms: C1_11  and  C8_18 
    8  A    between atoms: C2_12  and  C10_20 
    9  A    between atoms: C3_13  and  C4_14 

>  <TORSDO>
F 9

$$$$
./Silimarina.pdbqt
 OpenBabel10282519553D

 40 44  0  0  1  0  0  0  0  0999 V2000
  -41.8790   36.3330   10.8990 O   0  0  0  0  0  0  0  0  0  0  0  0
  -41.5590   33.8240   12.2470 O   0  0  0  0  0  0  0  0  0  0  0  0
  -42.7540   35.2180   10.6670 C   0  0  1  0  0  3  0  0  0  0  0  0
  -42.8490   34.3720   11.9510 C   0  0  1  0  0  3  0  0  0  0  0  0
  -38.4770   36.5740   12.1150 C   0  0  0  0  0  0  0  0  0  0  0  0
  -40.7150   35.9740   11.5160 C   0  0  0  0  0  0  0  0  0  0  0  0
  -40.5620   34.7540   12.1920 C   0  0  0  0  0  0  0  0  0  0  0  0
  -39.6770   36.8980   11.4790 C   0  0  0  0  0  3  0  0  0  0  0  0
  -38.3150   35.3530   12.7710 C   0  0  0  0  0  3  0  0  0  0  0  0
  -39.3600   34.4310   12.8140 C   0  0  0  0  0  3  0  0  0  0  0  0
  -37.3790   37.5960   12.0890 C   0  0  2  0  0  3  0  0  0  0  0  0
  -37.7190   38.4870   11.0110 O   0  0  0  0  0  0  0  0  0  0  0  0
  -36.7440   39.1590   10.3810 C   0  0  0  0  0  0  0  0  0  0  0  0
  -35.3700   38.9490   10.6060 C   0  0  0  0  0  0  0  0  0  0  0  0
  -37.2160   40.1000    9.4610 C   0  0  0  0  0  3  0  0  0  0  0  0
  -34.9480   37.9630   11.5800 C   0  0  0  0  0  0  0  0  0  0  0  0
  -34.4640   39.7250    9.8600 C   0  0  0  0  0  0  0  0  0  0  0  0
  -33.8820   37.9170   12.1420 O   0  0  0  0  0  0  0  0  0  0  0  0
  -36.0130   36.9110   11.8910 C   0  0  1  0  0  3  0  0  0  0  0  0
  -34.8870   40.6810    8.9310 C   0  0  0  0  0  3  0  0  0  0  0  0
  -36.2670   40.8420    8.7550 C   0  0  0  0  0  0  0  0  0  0  0  0
  -35.7430   36.2330   13.0930 O   0  0  0  0  0  0  0  0  0  0  0  0
  -35.5380   35.2810   12.9060 H   0  0  0  0  0  0  0  0  0  0  0  0
  -33.1620   39.4720   10.0710 O   0  0  0  0  0  0  0  0  0  0  0  0
  -32.9610   39.2660   11.0220 H   0  0  0  0  0  0  0  0  0  0  0  0
  -36.7730   41.7350    7.8810 O   0  0  0  0  0  0  0  0  0  0  0  0
  -37.3970   42.3770    8.3080 H   0  0  0  0  0  0  0  0  0  0  0  0
  -44.0750   35.8280   10.3100 C   0  0  0  0  0  0  0  0  0  0  0  0
  -44.3840   37.1150   10.7500 C   0  0  0  0  0  3  0  0  0  0  0  0
  -45.6230   37.6790   10.4330 C   0  0  0  0  0  0  0  0  0  0  0  0
  -46.5360   36.9320    9.6640 C   0  0  0  0  0  0  0  0  0  0  0  0
  -46.2220   35.6490    9.2280 C   0  0  0  0  0  3  0  0  0  0  0  0
  -44.9840   35.0960    9.5490 C   0  0  0  0  0  3  0  0  0  0  0  0
  -45.7920   38.9190   10.9520 O   0  0  0  0  0  0  0  0  0  0  0  0
  -45.5670   39.0880   12.3480 C   0  0  0  0  0  1  0  0  0  0  0  0
  -47.7250   37.5220    9.3540 O   0  0  0  0  0  0  0  0  0  0  0  0
  -47.9390   37.4240    8.3940 H   0  0  0  0  0  0  0  0  0  0  0  0
  -43.7480   33.1360   11.8030 C   0  0  0  0  0  2  0  0  0  0  0  0
  -42.9690   31.9660   11.8760 O   0  0  0  0  0  0  0  0  0  0  0  0
  -43.5410   31.1660   11.8770 H   0  0  0  0  0  0  0  0  0  0  0  0
  1  6  1  0  0  0  0
  3 28  1  1  0  0  0
  3  1  1  0  0  0  0
  3  4  1  0  0  0  0
  4 38  1  6  0  0  0
  4  2  1  0  0  0  0
  5  9  1  0  0  0  0
  6  7  2  0  0  0  0
  7  2  1  0  0  0  0
  7 10  1  0  0  0  0
  8  6  1  0  0  0  0
  8  5  2  0  0  0  0
  9 10  2  0  0  0  0
 11  5  1  6  0  0  0
 12 11  1  0  0  0  0
 13 14  1  0  0  0  0
 13 12  1  0  0  0  0
 14 16  1  0  0  0  0
 15 13  2  0  0  0  0
 16 19  1  0  0  0  0
 16 18  2  0  0  0  0
 17 24  1  0  0  0  0
 17 14  2  0  0  0  0
 19 11  1  0  0  0  0
 19 22  1  1  0  0  0
 20 17  1  0  0  0  0
 21 20  2  0  0  0  0
 21 15  1  0  0  0  0
 23 22  1  0  0  0  0
 24 25  1  0  0  0  0
 26 27  1  0  0  0  0
 26 21  1  0  0  0  0
 28 29  1  0  0  0  0
 30 29  2  0  0  0  0
 30 34  1  0  0  0  0
 31 30  1  0  0  0  0
 32 33  1  0  0  0  0
 32 31  2  0  0  0  0
 33 28  2  0  0  0  0
 34 35  1  0  0  0  0
 36 31  1  0  0  0  0
 37 36  1  0  0  0  0
 38 39  1  0  0  0  0
 39 40  1  0  0  0  0
M  END
>  <MODEL>
11

>  <REMARK>
 VINA RESULT:    -8.146     12.716     16.512
 INTER + INTRA:         -12.175
 INTER:                 -12.104
 INTRA:                  -0.071
 UNBOUND:                -0.934
  9 active torsions:
  status: ('A' for Active; 'I' for Inactive)
    1  A    between atoms: O4_4  and  C5_15 
    2  A    between atoms: O5_5  and  C10_20 
    3  A    between atoms: O7_7  and  C18_28 
    4  A    between atoms: O8_8  and  C20_30 
    5  A    between atoms: O9_9  and  C22_32 
    6  A    between atoms: O10_10  and  C24_34 
    7  A    between atoms: C1_11  and  C8_18 
    8  A    between atoms: C2_12  and  C10_20 
    9  A    between atoms: C3_13  and  C4_14 

>  <TORSDO>
F 9

$$$$
./Silimarina.pdbqt
 OpenBabel10282519553D

 40 44  0  0  1  0  0  0  0  0999 V2000
  -34.7850   22.1640  -14.0780 O   0  0  0  0  0  0  0  0  0  0  0  0
  -34.4280   21.7570  -16.8940 O   0  0  0  0  0  0  0  0  0  0  0  0
  -33.5450   21.7030  -14.6390 C   0  0  1  0  0  3  0  0  0  0  0  0
  -33.3850   22.2760  -16.0600 C   0  0  1  0  0  3  0  0  0  0  0  0
  -38.2090   22.0270  -15.2470 C   0  0  0  0  0  0  0  0  0  0  0  0
  -35.8350   22.0380  -14.9410 C   0  0  0  0  0  0  0  0  0  0  0  0
  -35.6630   21.8560  -16.3220 C   0  0  0  0  0  0  0  0  0  0  0  0
  -37.1080   22.1330  -14.3930 C   0  0  0  0  0  3  0  0  0  0  0  0
  -38.0410   21.8260  -16.6170 C   0  0  0  0  0  3  0  0  0  0  0  0
  -36.7630   21.7390  -17.1660 C   0  0  0  0  0  3  0  0  0  0  0  0
  -39.5740   22.1620  -14.6400 C   0  0  2  0  0  3  0  0  0  0  0  0
  -40.2350   20.9140  -14.9160 O   0  0  0  0  0  0  0  0  0  0  0  0
  -41.5740   20.8820  -14.9970 C   0  0  0  0  0  0  0  0  0  0  0  0
  -42.3920   22.0270  -14.9730 C   0  0  0  0  0  0  0  0  0  0  0  0
  -42.0970   19.5910  -15.1160 C   0  0  0  0  0  3  0  0  0  0  0  0
  -41.7850   23.3360  -14.8400 C   0  0  0  0  0  0  0  0  0  0  0  0
  -43.7820   21.8340  -15.0790 C   0  0  0  0  0  0  0  0  0  0  0  0
  -42.3220   24.3420  -14.4460 O   0  0  0  0  0  0  0  0  0  0  0  0
  -40.3100   23.3740  -15.2430 C   0  0  1  0  0  3  0  0  0  0  0  0
  -44.3530   20.5640  -15.1960 C   0  0  0  0  0  3  0  0  0  0  0  0
  -43.4840   19.4660  -15.2130 C   0  0  0  0  0  0  0  0  0  0  0  0
  -39.6590   24.5130  -14.7370 O   0  0  0  0  0  0  0  0  0  0  0  0
  -39.2840   25.0480  -15.4830 H   0  0  0  0  0  0  0  0  0  0  0  0
  -44.5290   22.9490  -15.0920 O   0  0  0  0  0  0  0  0  0  0  0  0
  -44.1520   23.6700  -14.5200 H   0  0  0  0  0  0  0  0  0  0  0  0
  -43.9380   18.2010  -15.3260 O   0  0  0  0  0  0  0  0  0  0  0  0
  -43.2780   17.5280  -15.0170 H   0  0  0  0  0  0  0  0  0  0  0  0
  -32.4850   22.2190  -13.7140 C   0  0  0  0  0  0  0  0  0  0  0  0
  -32.7490   23.3260  -12.9090 C   0  0  0  0  0  3  0  0  0  0  0  0
  -31.7550   23.8200  -12.0580 C   0  0  0  0  0  0  0  0  0  0  0  0
  -30.5020   23.1790  -12.0290 C   0  0  0  0  0  0  0  0  0  0  0  0
  -30.2440   22.0750  -12.8350 C   0  0  0  0  0  3  0  0  0  0  0  0
  -31.2410   21.5900  -13.6790 C   0  0  0  0  0  3  0  0  0  0  0  0
  -32.1460   24.9140  -11.3600 O   0  0  0  0  0  0  0  0  0  0  0  0
  -33.4010   25.4980  -11.6950 C   0  0  0  0  0  1  0  0  0  0  0  0
  -29.5640   23.6730  -11.1720 O   0  0  0  0  0  0  0  0  0  0  0  0
  -29.3780   23.0410  -10.4340 H   0  0  0  0  0  0  0  0  0  0  0  0
  -32.0960   21.8230  -16.7600 C   0  0  0  0  0  2  0  0  0  0  0  0
  -32.1160   20.4280  -16.9430 O   0  0  0  0  0  0  0  0  0  0  0  0
  -33.0250   20.0730  -16.8210 H   0  0  0  0  0  0  0  0  0  0  0  0
  2  7  1  0  0  0  0
  2  4  1  0  0  0  0
  3  1  1  0  0  0  0
  3 28  1  1  0  0  0
  4 38  1  6  0  0  0
  4  3  1  0  0  0  0
  5  8  1  0  0  0  0
  6  8  2  0  0  0  0
  6  1  1  0  0  0  0
  7  6  1  0  0  0  0
  9  5  2  0  0  0  0
 10  9  1  0  0  0  0
 10  7  2  0  0  0  0
 11  5  1  6  0  0  0
 12 11  1  0  0  0  0
 13 14  1  0  0  0  0
 13 12  1  0  0  0  0
 14 16  1  0  0  0  0
 15 13  2  0  0  0  0
 16 18  2  0  0  0  0
 17 14  2  0  0  0  0
 19 16  1  0  0  0  0
 19 22  1  1  0  0  0
 19 11  1  0  0  0  0
 20 17  1  0  0  0  0
 21 20  2  0  0  0  0
 21 15  1  0  0  0  0
 23 22  1  0  0  0  0
 24 17  1  0  0  0  0
 24 25  1  0  0  0  0
 26 21  1  0  0  0  0
 26 27  1  0  0  0  0
 28 33  2  0  0  0  0
 28 29  1  0  0  0  0
 29 30  2  0  0  0  0
 30 31  1  0  0  0  0
 30 34  1  0  0  0  0
 31 36  1  0  0  0  0
 32 31  2  0  0  0  0
 33 32  1  0  0  0  0
 35 34  1  0  0  0  0
 36 37  1  0  0  0  0
 39 40  1  0  0  0  0
 39 38  1  0  0  0  0
M  END
>  <MODEL>
12

>  <REMARK>
 VINA RESULT:    -8.093     15.706     18.006
 INTER + INTRA:         -12.103
 INTER:                 -11.388
 INTRA:                  -0.715
 UNBOUND:                -0.934
  9 active torsions:
  status: ('A' for Active; 'I' for Inactive)
    1  A    between atoms: O4_4  and  C5_15 
    2  A    between atoms: O5_5  and  C10_20 
    3  A    between atoms: O7_7  and  C18_28 
    4  A    between atoms: O8_8  and  C20_30 
    5  A    between atoms: O9_9  and  C22_32 
    6  A    between atoms: O10_10  and  C24_34 
    7  A    between atoms: C1_11  and  C8_18 
    8  A    between atoms: C2_12  and  C10_20 
    9  A    between atoms: C3_13  and  C4_14 

>  <TORSDO>
F 9

$$$$
./Silimarina.pdbqt
 OpenBabel10282519553D

 40 44  0  0  1  0  0  0  0  0999 V2000
  -34.1890   20.0310  -16.3320 O   0  0  0  0  0  0  0  0  0  0  0  0
  -32.7680   21.2350  -18.5120 O   0  0  0  0  0  0  0  0  0  0  0  0
  -33.4610   21.2620  -16.1910 C   0  0  1  0  0  3  0  0  0  0  0  0
  -33.4690   22.0140  -17.5350 C   0  0  1  0  0  3  0  0  0  0  0  0
  -33.9110   17.2660  -18.6520 C   0  0  0  0  0  0  0  0  0  0  0  0
  -33.8430   19.3380  -17.4560 C   0  0  0  0  0  0  0  0  0  0  0  0
  -33.1640   19.9290  -18.5320 C   0  0  0  0  0  0  0  0  0  0  0  0
  -34.2300   18.0040  -17.5100 C   0  0  0  0  0  3  0  0  0  0  0  0
  -33.2180   17.8460  -19.7150 C   0  0  0  0  0  3  0  0  0  0  0  0
  -32.8380   19.1860  -19.6630 C   0  0  0  0  0  3  0  0  0  0  0  0
  -34.3630   15.8360  -18.7040 C   0  0  2  0  0  3  0  0  0  0  0  0
  -33.1620   15.0560  -18.5660 O   0  0  0  0  0  0  0  0  0  0  0  0
  -33.1170   13.8190  -19.0840 C   0  0  0  0  0  0  0  0  0  0  0  0
  -34.1280   13.2680  -19.8950 C   0  0  0  0  0  0  0  0  0  0  0  0
  -31.9570   13.1140  -18.7510 C   0  0  0  0  0  3  0  0  0  0  0  0
  -35.3090   14.0520  -20.1960 C   0  0  0  0  0  0  0  0  0  0  0  0
  -33.9330   11.9600  -20.3750 C   0  0  0  0  0  0  0  0  0  0  0  0
  -36.3840   13.6280  -20.5420 O   0  0  0  0  0  0  0  0  0  0  0  0
  -35.1080   15.5580  -20.0240 C   0  0  1  0  0  3  0  0  0  0  0  0
  -32.7930   11.2130  -20.0670 C   0  0  0  0  0  3  0  0  0  0  0  0
  -31.8260   11.8180  -19.2550 C   0  0  0  0  0  0  0  0  0  0  0  0
  -36.3340   16.2410  -19.9280 O   0  0  0  0  0  0  0  0  0  0  0  0
  -37.0830   15.6200  -20.1180 H   0  0  0  0  0  0  0  0  0  0  0  0
  -34.8980   11.4800  -21.1760 O   0  0  0  0  0  0  0  0  0  0  0  0
  -34.5610   10.7980  -21.8160 H   0  0  0  0  0  0  0  0  0  0  0  0
  -30.6900   11.1800  -18.9050 O   0  0  0  0  0  0  0  0  0  0  0  0
  -30.8610   10.3470  -18.3960 H   0  0  0  0  0  0  0  0  0  0  0  0
  -34.1890   22.0250  -15.1280 C   0  0  0  0  0  0  0  0  0  0  0  0
  -33.4690   22.6510  -14.1110 C   0  0  0  0  0  3  0  0  0  0  0  0
  -34.1480   23.3500  -13.1070 C   0  0  0  0  0  0  0  0  0  0  0  0
  -35.5550   23.4110  -13.1500 C   0  0  0  0  0  0  0  0  0  0  0  0
  -36.2670   22.7840  -14.1680 C   0  0  0  0  0  3  0  0  0  0  0  0
  -35.5810   22.0910  -15.1640 C   0  0  0  0  0  3  0  0  0  0  0  0
  -33.3220   23.8790  -12.1740 O   0  0  0  0  0  0  0  0  0  0  0  0
  -32.0430   23.2750  -12.0040 C   0  0  0  0  0  1  0  0  0  0  0  0
  -36.1820   24.1190  -12.1700 O   0  0  0  0  0  0  0  0  0  0  0  0
  -36.3700   25.0470  -12.4550 H   0  0  0  0  0  0  0  0  0  0  0  0
  -32.6940   23.3390  -17.4980 C   0  0  0  0  0  2  0  0  0  0  0  0
  -33.5930   24.4150  -17.3730 O   0  0  0  0  0  0  0  0  0  0  0  0
  -34.5130   24.0890  -17.2560 H   0  0  0  0  0  0  0  0  0  0  0  0
  1  3  1  0  0  0  0
  2  4  1  0  0  0  0
  3 28  1  1  0  0  0
  4 38  1  1  0  0  0
  4  3  1  0  0  0  0
  5  8  1  0  0  0  0
  6  1  1  0  0  0  0
  7  2  1  0  0  0  0
  7  6  1  0  0  0  0
  8  6  2  0  0  0  0
  9 10  1  0  0  0  0
  9  5  2  0  0  0  0
 10  7  2  0  0  0  0
 11  5  1  6  0  0  0
 11 12  1  0  0  0  0
 13 15  1  0  0  0  0
 13 12  1  0  0  0  0
 14 13  2  0  0  0  0
 16 19  1  0  0  0  0
 16 14  1  0  0  0  0
 17 20  2  0  0  0  0
 17 14  1  0  0  0  0
 18 16  2  0  0  0  0
 19 22  1  1  0  0  0
 19 11  1  0  0  0  0
 20 21  1  0  0  0  0
 21 26  1  0  0  0  0
 21 15  2  0  0  0  0
 23 22  1  0  0  0  0
 24 17  1  0  0  0  0
 25 24  1  0  0  0  0
 26 27  1  0  0  0  0
 28 29  1  0  0  0  0
 29 30  2  0  0  0  0
 30 34  1  0  0  0  0
 31 30  1  0  0  0  0
 31 36  1  0  0  0  0
 32 31  2  0  0  0  0
 33 28  2  0  0  0  0
 33 32  1  0  0  0  0
 34 35  1  0  0  0  0
 37 36  1  0  0  0  0
 38 39  1  0  0  0  0
 39 40  1  0  0  0  0
M  END
>  <MODEL>
13

>  <REMARK>
 VINA RESULT:    -8.084     18.587     22.519
 INTER + INTRA:         -12.089
 INTER:                 -11.216
 INTRA:                  -0.873
 UNBOUND:                -0.934
  9 active torsions:
  status: ('A' for Active; 'I' for Inactive)
    1  A    between atoms: O4_4  and  C5_15 
    2  A    between atoms: O5_5  and  C10_20 
    3  A    between atoms: O7_7  and  C18_28 
    4  A    between atoms: O8_8  and  C20_30 
    5  A    between atoms: O9_9  and  C22_32 
    6  A    between atoms: O10_10  and  C24_34 
    7  A    between atoms: C1_11  and  C8_18 
    8  A    between atoms: C2_12  and  C10_20 
    9  A    between atoms: C3_13  and  C4_14 

>  <TORSDO>
F 9

$$$$
./Silimarina.pdbqt
 OpenBabel10282519553D

 40 44  0  0  1  0  0  0  0  0999 V2000
  -33.7120   23.9060  -16.2850 O   0  0  0  0  0  0  0  0  0  0  0  0
  -33.0570   21.2570  -17.1630 O   0  0  0  0  0  0  0  0  0  0  0  0
  -33.9600   22.7440  -15.4780 C   0  0  1  0  0  3  0  0  0  0  0  0
  -32.9070   21.6670  -15.7990 C   0  0  1  0  0  3  0  0  0  0  0  0
  -33.3310   24.3810  -19.8540 C   0  0  0  0  0  0  0  0  0  0  0  0
  -33.4870   23.6010  -17.5970 C   0  0  0  0  0  0  0  0  0  0  0  0
  -33.1490   22.3090  -18.0270 C   0  0  0  0  0  0  0  0  0  0  0  0
  -33.5730   24.6500  -18.5050 C   0  0  0  0  0  3  0  0  0  0  0  0
  -33.0140   23.0930  -20.2870 C   0  0  0  0  0  3  0  0  0  0  0  0
  -32.9210   22.0440  -19.3730 C   0  0  0  0  0  3  0  0  0  0  0  0
  -33.3990   25.5320  -20.8150 C   0  0  2  0  0  3  0  0  0  0  0  0
  -32.0310   25.8140  -21.1620 O   0  0  0  0  0  0  0  0  0  0  0  0
  -31.6920   27.0530  -21.5490 C   0  0  0  0  0  0  0  0  0  0  0  0
  -32.5630   28.1580  -21.5030 C   0  0  0  0  0  0  0  0  0  0  0  0
  -30.3750   27.1570  -22.0030 C   0  0  0  0  0  3  0  0  0  0  0  0
  -33.9210   27.9790  -21.0280 C   0  0  0  0  0  0  0  0  0  0  0  0
  -32.0600   29.3990  -21.9340 C   0  0  0  0  0  0  0  0  0  0  0  0
  -34.8650   28.6930  -21.2610 O   0  0  0  0  0  0  0  0  0  0  0  0
  -34.1090   26.7330  -20.1610 C   0  0  1  0  0  3  0  0  0  0  0  0
  -30.7510   29.5540  -22.4000 C   0  0  0  0  0  3  0  0  0  0  0  0
  -29.9360   28.4160  -22.4210 C   0  0  0  0  0  0  0  0  0  0  0  0
  -35.4640   26.3710  -20.0550 O   0  0  0  0  0  0  0  0  0  0  0  0
  -35.8780   26.8310  -19.2800 H   0  0  0  0  0  0  0  0  0  0  0  0
  -32.9050   30.4390  -21.8400 O   0  0  0  0  0  0  0  0  0  0  0  0
  -32.5330   31.2720  -22.2350 H   0  0  0  0  0  0  0  0  0  0  0  0
  -28.6590   28.4630  -22.8500 O   0  0  0  0  0  0  0  0  0  0  0  0
  -28.3250   29.3910  -22.9580 H   0  0  0  0  0  0  0  0  0  0  0  0
  -33.8470   23.2220  -14.0630 C   0  0  0  0  0  0  0  0  0  0  0  0
  -32.6610   23.0180  -13.3570 C   0  0  0  0  0  3  0  0  0  0  0  0
  -32.5590   23.4480  -12.0300 C   0  0  0  0  0  0  0  0  0  0  0  0
  -33.6620   24.0880  -11.4340 C   0  0  0  0  0  0  0  0  0  0  0  0
  -34.8420   24.2890  -12.1430 C   0  0  0  0  0  3  0  0  0  0  0  0
  -34.9340   23.8580  -13.4650 C   0  0  0  0  0  3  0  0  0  0  0  0
  -31.3620   23.1550  -11.4670 O   0  0  0  0  0  0  0  0  0  0  0  0
  -30.2910   24.0680  -11.6790 C   0  0  0  0  0  1  0  0  0  0  0  0
  -33.5200   24.5140  -10.1470 O   0  0  0  0  0  0  0  0  0  0  0  0
  -34.0750   23.9840   -9.5250 H   0  0  0  0  0  0  0  0  0  0  0  0
  -33.0980   20.3690  -15.0010 C   0  0  0  0  0  2  0  0  0  0  0  0
  -32.7620   19.2620  -15.8020 O   0  0  0  0  0  0  0  0  0  0  0  0
  -31.7890   19.2170  -15.9450 H   0  0  0  0  0  0  0  0  0  0  0  0
  1  3  1  0  0  0  0
  2  4  1  0  0  0  0
  3 28  1  1  0  0  0
  4  3  1  0  0  0  0
  4 38  1  1  0  0  0
  5  8  1  0  0  0  0
  6  1  1  0  0  0  0
  7  6  1  0  0  0  0
  7  2  1  0  0  0  0
  8  6  2  0  0  0  0
  9  5  2  0  0  0  0
  9 10  1  0  0  0  0
 10  7  2  0  0  0  0
 11 19  1  0  0  0  0
 11  5  1  1  0  0  0
 12 11  1  0  0  0  0
 13 14  1  0  0  0  0
 13 12  1  0  0  0  0
 14 16  1  0  0  0  0
 15 13  2  0  0  0  0
 16 19  1  0  0  0  0
 17 24  1  0  0  0  0
 17 14  2  0  0  0  0
 18 16  2  0  0  0  0
 19 22  1  6  0  0  0
 20 17  1  0  0  0  0
 21 20  2  0  0  0  0
 21 15  1  0  0  0  0
 22 23  1  0  0  0  0
 25 24  1  0  0  0  0
 26 21  1  0  0  0  0
 27 26  1  0  0  0  0
 28 33  2  0  0  0  0
 28 29  1  0  0  0  0
 29 30  2  0  0  0  0
 30 34  1  0  0  0  0
 30 31  1  0  0  0  0
 31 36  1  0  0  0  0
 32 31  2  0  0  0  0
 33 32  1  0  0  0  0
 35 34  1  0  0  0  0
 36 37  1  0  0  0  0
 39 38  1  0  0  0  0
 40 39  1  0  0  0  0
M  END
>  <MODEL>
14

>  <REMARK>
 VINA RESULT:    -8.075     18.096     22.023
 INTER + INTRA:         -12.078
 INTER:                 -11.833
 INTRA:                  -0.245
 UNBOUND:                -0.934
  9 active torsions:
  status: ('A' for Active; 'I' for Inactive)
    1  A    between atoms: O4_4  and  C5_15 
    2  A    between atoms: O5_5  and  C10_20 
    3  A    between atoms: O7_7  and  C18_28 
    4  A    between atoms: O8_8  and  C20_30 
    5  A    between atoms: O9_9  and  C22_32 
    6  A    between atoms: O10_10  and  C24_34 
    7  A    between atoms: C1_11  and  C8_18 
    8  A    between atoms: C2_12  and  C10_20 
    9  A    between atoms: C3_13  and  C4_14 

>  <TORSDO>
F 9

$$$$
./Silimarina.pdbqt
 OpenBabel10282519553D

 40 44  0  0  1  0  0  0  0  0999 V2000
  -32.7730   25.8660  -19.5540 O   0  0  0  0  0  0  0  0  0  0  0  0
  -35.5190   26.3610  -20.2110 O   0  0  0  0  0  0  0  0  0  0  0  0
  -33.1740   26.4310  -20.8130 C   0  0  1  0  0  3  0  0  0  0  0  0
  -34.4670   27.2440  -20.6150 C   0  0  1  0  0  3  0  0  0  0  0  0
  -34.4970   23.8090  -17.1250 C   0  0  0  0  0  0  0  0  0  0  0  0
  -33.8060   25.2740  -18.8860 C   0  0  0  0  0  0  0  0  0  0  0  0
  -35.1510   25.5280  -19.1940 C   0  0  0  0  0  0  0  0  0  0  0  0
  -33.4670   24.4190  -17.8440 C   0  0  0  0  0  3  0  0  0  0  0  0
  -35.8350   24.0440  -17.4420 C   0  0  0  0  0  3  0  0  0  0  0  0
  -36.1730   24.9090  -18.4820 C   0  0  0  0  0  3  0  0  0  0  0  0
  -34.1120   22.9120  -15.9850 C   0  0  2  0  0  3  0  0  0  0  0  0
  -34.1360   23.7550  -14.8190 O   0  0  0  0  0  0  0  0  0  0  0  0
  -33.3620   23.4450  -13.7670 C   0  0  0  0  0  0  0  0  0  0  0  0
  -32.4020   22.4160  -13.7720 C   0  0  0  0  0  0  0  0  0  0  0  0
  -33.5900   24.2500  -12.6470 C   0  0  0  0  0  3  0  0  0  0  0  0
  -32.2210   21.6130  -14.9650 C   0  0  0  0  0  0  0  0  0  0  0  0
  -31.6580   22.2170  -12.5950 C   0  0  0  0  0  0  0  0  0  0  0  0
  -31.7380   20.5090  -15.0230 O   0  0  0  0  0  0  0  0  0  0  0  0
  -32.7280   22.2850  -16.2410 C   0  0  1  0  0  3  0  0  0  0  0  0
  -31.8510   22.9930  -11.4480 C   0  0  0  0  0  3  0  0  0  0  0  0
  -32.8220   24.0000  -11.5080 C   0  0  0  0  0  0  0  0  0  0  0  0
  -32.9100   21.3580  -17.2830 O   0  0  0  0  0  0  0  0  0  0  0  0
  -32.9160   20.4360  -16.9190 H   0  0  0  0  0  0  0  0  0  0  0  0
  -30.7240   21.2530  -12.6470 O   0  0  0  0  0  0  0  0  0  0  0  0
  -30.5610   20.9270  -13.5720 H   0  0  0  0  0  0  0  0  0  0  0  0
  -33.0800   24.8030  -10.4560 O   0  0  0  0  0  0  0  0  0  0  0  0
  -33.4510   24.3100   -9.6800 H   0  0  0  0  0  0  0  0  0  0  0  0
  -32.0300   27.3040  -21.2290 C   0  0  0  0  0  0  0  0  0  0  0  0
  -30.9360   26.7440  -21.8870 C   0  0  0  0  0  3  0  0  0  0  0  0
  -29.8590   27.5550  -22.2610 C   0  0  0  0  0  0  0  0  0  0  0  0
  -29.9090   28.9310  -21.9680 C   0  0  0  0  0  0  0  0  0  0  0  0
  -31.0040   29.4850  -21.3120 C   0  0  0  0  0  3  0  0  0  0  0  0
  -32.0720   28.6680  -20.9440 C   0  0  0  0  0  3  0  0  0  0  0  0
  -28.8590   26.8680  -22.8630 O   0  0  0  0  0  0  0  0  0  0  0  0
  -29.0600   25.4780  -23.0980 C   0  0  0  0  0  1  0  0  0  0  0  0
  -28.8540   29.6960  -22.3670 O   0  0  0  0  0  0  0  0  0  0  0  0
  -28.5920   30.3470  -21.6700 H   0  0  0  0  0  0  0  0  0  0  0  0
  -34.9950   27.8750  -21.9120 C   0  0  0  0  0  2  0  0  0  0  0  0
  -35.5050   29.1600  -21.6450 O   0  0  0  0  0  0  0  0  0  0  0  0
  -36.4750   29.1890  -21.8010 H   0  0  0  0  0  0  0  0  0  0  0  0
  1  6  1  0  0  0  0
  2  7  1  0  0  0  0
  3 28  1  1  0  0  0
  3  4  1  0  0  0  0
  3  1  1  0  0  0  0
  4 38  1  6  0  0  0
  4  2  1  0  0  0  0
  6  8  1  0  0  0  0
  7  6  2  0  0  0  0
  7 10  1  0  0  0  0
  8  5  2  0  0  0  0
  9  5  1  0  0  0  0
 10  9  2  0  0  0  0
 11  5  1  6  0  0  0
 11 12  1  0  0  0  0
 12 13  1  0  0  0  0
 13 15  1  0  0  0  0
 14 13  2  0  0  0  0
 14 17  1  0  0  0  0
 15 21  2  0  0  0  0
 16 14  1  0  0  0  0
 17 20  2  0  0  0  0
 18 16  2  0  0  0  0
 19 22  1  6  0  0  0
 19 11  1  0  0  0  0
 19 16  1  0  0  0  0
 21 20  1  0  0  0  0
 21 26  1  0  0  0  0
 22 23  1  0  0  0  0
 24 17  1  0  0  0  0
 25 24  1  0  0  0  0
 26 27  1  0  0  0  0
 28 33  1  0  0  0  0
 29 28  2  0  0  0  0
 30 31  2  0  0  0  0
 30 29  1  0  0  0  0
 31 32  1  0  0  0  0
 32 33  2  0  0  0  0
 34 30  1  0  0  0  0
 35 34  1  0  0  0  0
 36 31  1  0  0  0  0
 36 37  1  0  0  0  0
 38 39  1  0  0  0  0
 40 39  1  0  0  0  0
M  END
>  <MODEL>
15

>  <REMARK>
 VINA RESULT:    -8.018     18.264     21.970
 INTER + INTRA:         -11.999
 INTER:                 -11.552
 INTRA:                  -0.447
 UNBOUND:                -0.934
  9 active torsions:
  status: ('A' for Active; 'I' for Inactive)
    1  A    between atoms: O4_4  and  C5_15 
    2  A    between atoms: O5_5  and  C10_20 
    3  A    between atoms: O7_7  and  C18_28 
    4  A    between atoms: O8_8  and  C20_30 
    5  A    between atoms: O9_9  and  C22_32 
    6  A    between atoms: O10_10  and  C24_34 
    7  A    between atoms: C1_11  and  C8_18 
    8  A    between atoms: C2_12  and  C10_20 
    9  A    between atoms: C3_13  and  C4_14 

>  <TORSDO>
F 9

$$$$
./Silimarina.pdbqt
 OpenBabel10282519553D

 40 44  0  0  1  0  0  0  0  0999 V2000
  -42.2560   32.4750    6.5550 O   0  0  0  0  0  0  0  0  0  0  0  0
  -45.0240   31.7470    6.3870 O   0  0  0  0  0  0  0  0  0  0  0  0
  -42.7450   31.5220    5.5970 C   0  0  1  0  0  3  0  0  0  0  0  0
  -44.1970   31.8760    5.2240 C   0  0  1  0  0  3  0  0  0  0  0  0
  -43.5170   33.6060    9.7550 C   0  0  0  0  0  0  0  0  0  0  0  0
  -43.1400   32.7060    7.5700 C   0  0  0  0  0  0  0  0  0  0  0  0
  -44.4990   32.3670    7.4830 C   0  0  0  0  0  0  0  0  0  0  0  0
  -42.6390   33.3360    8.7030 C   0  0  0  0  0  3  0  0  0  0  0  0
  -44.8640   33.2510    9.6800 C   0  0  0  0  0  3  0  0  0  0  0  0
  -45.3670   32.6270    8.5390 C   0  0  0  0  0  3  0  0  0  0  0  0
  -42.9630   34.3130   10.9570 C   0  0  2  0  0  3  0  0  0  0  0  0
  -42.2630   35.4560   10.4330 O   0  0  0  0  0  0  0  0  0  0  0  0
  -41.2450   35.9820   11.1310 C   0  0  0  0  0  0  0  0  0  0  0  0
  -40.7060   35.4010   12.2950 C   0  0  0  0  0  0  0  0  0  0  0  0
  -40.7520   37.1730   10.5920 C   0  0  0  0  0  3  0  0  0  0  0  0
  -41.2700   34.1680   12.8060 C   0  0  0  0  0  0  0  0  0  0  0  0
  -39.6300   36.0660   12.9120 C   0  0  0  0  0  0  0  0  0  0  0  0
  -41.1860   33.7520   13.9350 O   0  0  0  0  0  0  0  0  0  0  0  0
  -42.0480   33.3680   11.7600 C   0  0  1  0  0  3  0  0  0  0  0  0
  -39.1040   37.2610   12.4140 C   0  0  0  0  0  3  0  0  0  0  0  0
  -39.6860   37.7860   11.2530 C   0  0  0  0  0  0  0  0  0  0  0  0
  -42.8980   32.4190   12.3550 O   0  0  0  0  0  0  0  0  0  0  0  0
  -43.7430   32.8530   12.6410 H   0  0  0  0  0  0  0  0  0  0  0  0
  -39.1150   35.4650   13.9970 O   0  0  0  0  0  0  0  0  0  0  0  0
  -38.5000   34.7180   13.7660 H   0  0  0  0  0  0  0  0  0  0  0  0
  -39.2480   38.9320   10.6940 O   0  0  0  0  0  0  0  0  0  0  0  0
  -39.7000   39.1360    9.8350 H   0  0  0  0  0  0  0  0  0  0  0  0
  -41.8270   31.6490    4.4200 C   0  0  0  0  0  0  0  0  0  0  0  0
  -42.0760   32.6190    3.4500 C   0  0  0  0  0  3  0  0  0  0  0  0
  -41.2310   32.7280    2.3410 C   0  0  0  0  0  0  0  0  0  0  0  0
  -40.1340   31.8520    2.2320 C   0  0  0  0  0  0  0  0  0  0  0  0
  -39.8900   30.8860    3.2040 C   0  0  0  0  0  3  0  0  0  0  0  0
  -40.7380   30.7870    4.3050 C   0  0  0  0  0  3  0  0  0  0  0  0
  -41.6140   33.6930    1.4720 O   0  0  0  0  0  0  0  0  0  0  0  0
  -42.7530   33.4340    0.6560 C   0  0  0  0  0  1  0  0  0  0  0  0
  -39.3170   32.0000    1.1520 O   0  0  0  0  0  0  0  0  0  0  0  0
  -39.8330   32.0420    0.3090 H   0  0  0  0  0  0  0  0  0  0  0  0
  -44.8240   30.9010    4.2170 C   0  0  0  0  0  2  0  0  0  0  0  0
  -45.6220   31.6080    3.2990 O   0  0  0  0  0  0  0  0  0  0  0  0
  -46.5650   31.6000    3.5780 H   0  0  0  0  0  0  0  0  0  0  0  0
  1  6  1  0  0  0  0
  2  7  1  0  0  0  0
  3 28  1  6  0  0  0
  3  1  1  0  0  0  0
  4 38  1  6  0  0  0
  4  3  1  0  0  0  0
  4  2  1  0  0  0  0
  6  8  1  0  0  0  0
  7  6  2  0  0  0  0
  7 10  1  0  0  0  0
  8  5  2  0  0  0  0
  9  5  1  0  0  0  0
 10  9  2  0  0  0  0
 11  5  1  6  0  0  0
 11 19  1  0  0  0  0
 12 11  1  0  0  0  0
 12 13  1  0  0  0  0
 13 14  1  0  0  0  0
 14 16  1  0  0  0  0
 14 17  2  0  0  0  0
 15 13  2  0  0  0  0
 15 21  1  0  0  0  0
 16 18  2  0  0  0  0
 17 24  1  0  0  0  0
 19 22  1  1  0  0  0
 19 16  1  0  0  0  0
 20 17  1  0  0  0  0
 21 20  2  0  0  0  0
 22 23  1  0  0  0  0
 25 24  1  0  0  0  0
 26 21  1  0  0  0  0
 27 26  1  0  0  0  0
 29 28  2  0  0  0  0
 30 29  1  0  0  0  0
 31 30  2  0  0  0  0
 31 32  1  0  0  0  0
 32 33  2  0  0  0  0
 33 28  1  0  0  0  0
 34 30  1  0  0  0  0
 35 34  1  0  0  0  0
 36 31  1  0  0  0  0
 37 36  1  0  0  0  0
 39 40  1  0  0  0  0
 39 38  1  0  0  0  0
M  END
>  <MODEL>
16

>  <REMARK>
 VINA RESULT:    -8.013      6.255     12.847
 INTER + INTRA:         -11.992
 INTER:                 -11.217
 INTRA:                  -0.776
 UNBOUND:                -0.934
  9 active torsions:
  status: ('A' for Active; 'I' for Inactive)
    1  A    between atoms: O4_4  and  C5_15 
    2  A    between atoms: O5_5  and  C10_20 
    3  A    between atoms: O7_7  and  C18_28 
    4  A    between atoms: O8_8  and  C20_30 
    5  A    between atoms: O9_9  and  C22_32 
    6  A    between atoms: O10_10  and  C24_34 
    7  A    between atoms: C1_11  and  C8_18 
    8  A    between atoms: C2_12  and  C10_20 
    9  A    between atoms: C3_13  and  C4_14 

>  <TORSDO>
F 9

$$$$
./Silimarina.pdbqt
 OpenBabel10282519553D

 40 44  0  0  1  0  0  0  0  0999 V2000
  -34.5650   22.7550  -14.5210 O   0  0  0  0  0  0  0  0  0  0  0  0
  -37.0040   23.2540  -13.0980 O   0  0  0  0  0  0  0  0  0  0  0  0
  -34.6450   23.6910  -13.4340 C   0  0  1  0  0  3  0  0  0  0  0  0
  -35.7300   23.2290  -12.4430 C   0  0  1  0  0  3  0  0  0  0  0  0
  -37.0400   21.4290  -16.8060 C   0  0  0  0  0  0  0  0  0  0  0  0
  -35.7900   22.4210  -15.0220 C   0  0  0  0  0  0  0  0  0  0  0  0
  -36.9840   22.6480  -14.3210 C   0  0  0  0  0  0  0  0  0  0  0  0
  -35.8070   21.8020  -16.2670 C   0  0  0  0  0  3  0  0  0  0  0  0
  -38.2300   21.6720  -16.1190 C   0  0  0  0  0  3  0  0  0  0  0  0
  -38.2100   22.2850  -14.8670 C   0  0  0  0  0  3  0  0  0  0  0  0
  -37.0360   20.7350  -18.1370 C   0  0  2  0  0  3  0  0  0  0  0  0
  -36.7880   19.3500  -17.8380 O   0  0  0  0  0  0  0  0  0  0  0  0
  -36.2080   18.5710  -18.7640 C   0  0  0  0  0  0  0  0  0  0  0  0
  -35.6820   19.0500  -19.9790 C   0  0  0  0  0  0  0  0  0  0  0  0
  -36.1620   17.2190  -18.4110 C   0  0  0  0  0  3  0  0  0  0  0  0
  -35.7680   20.4630  -20.2870 C   0  0  0  0  0  0  0  0  0  0  0  0
  -35.0930   18.1110  -20.8460 C   0  0  0  0  0  0  0  0  0  0  0  0
  -35.7130   20.9650  -21.3830 O   0  0  0  0  0  0  0  0  0  0  0  0
  -35.9630   21.3500  -19.0570 C   0  0  1  0  0  3  0  0  0  0  0  0
  -35.0270   16.7490  -20.5390 C   0  0  0  0  0  3  0  0  0  0  0  0
  -35.5690   16.3370  -19.3160 C   0  0  0  0  0  0  0  0  0  0  0  0
  -36.4370   22.6280  -19.4030 O   0  0  0  0  0  0  0  0  0  0  0  0
  -37.4230   22.6590  -19.3140 H   0  0  0  0  0  0  0  0  0  0  0  0
  -34.5670   18.6070  -21.9780 O   0  0  0  0  0  0  0  0  0  0  0  0
  -34.6800   19.5920  -22.0530 H   0  0  0  0  0  0  0  0  0  0  0  0
  -35.5510   15.0460  -18.9280 O   0  0  0  0  0  0  0  0  0  0  0  0
  -34.9260   14.4930  -19.4650 H   0  0  0  0  0  0  0  0  0  0  0  0
  -33.2840   23.6770  -12.8080 C   0  0  0  0  0  0  0  0  0  0  0  0
  -32.4260   22.6030  -13.0430 C   0  0  0  0  0  3  0  0  0  0  0  0
  -31.1620   22.5790  -12.4450 C   0  0  0  0  0  0  0  0  0  0  0  0
  -30.7790   23.6510  -11.6170 C   0  0  0  0  0  0  0  0  0  0  0  0
  -31.6390   24.7200  -11.3870 C   0  0  0  0  0  3  0  0  0  0  0  0
  -32.8960   24.7350  -11.9880 C   0  0  0  0  0  3  0  0  0  0  0  0
  -30.4540   21.4620  -12.7410 O   0  0  0  0  0  0  0  0  0  0  0  0
  -30.8390   20.7210  -13.8950 C   0  0  0  0  0  1  0  0  0  0  0  0
  -29.5310   23.6070  -11.0700 O   0  0  0  0  0  0  0  0  0  0  0  0
  -29.3710   24.3740  -10.4680 H   0  0  0  0  0  0  0  0  0  0  0  0
  -35.9110   24.1770  -11.2500 C   0  0  0  0  0  2  0  0  0  0  0  0
  -37.2250   24.0760  -10.7540 O   0  0  0  0  0  0  0  0  0  0  0  0
  -37.5910   24.9670  -10.5520 H   0  0  0  0  0  0  0  0  0  0  0  0
  1  3  1  0  0  0  0
  2  4  1  0  0  0  0
  3 28  1  1  0  0  0
  3  4  1  0  0  0  0
  4 38  1  1  0  0  0
  5  8  2  0  0  0  0
  5  9  1  0  0  0  0
  6  1  1  0  0  0  0
  6  7  2  0  0  0  0
  7  2  1  0  0  0  0
  8  6  1  0  0  0  0
  9 10  2  0  0  0  0
 10  7  1  0  0  0  0
 11 12  1  0  0  0  0
 11  5  1  1  0  0  0
 13 15  1  0  0  0  0
 13 12  1  0  0  0  0
 14 13  2  0  0  0  0
 16 14  1  0  0  0  0
 16 19  1  0  0  0  0
 17 20  2  0  0  0  0
 17 14  1  0  0  0  0
 18 16  2  0  0  0  0
 19 22  1  6  0  0  0
 19 11  1  0  0  0  0
 20 21  1  0  0  0  0
 21 26  1  0  0  0  0
 21 15  2  0  0  0  0
 22 23  1  0  0  0  0
 24 17  1  0  0  0  0
 25 24  1  0  0  0  0
 27 26  1  0  0  0  0
 28 33  1  0  0  0  0
 29 28  2  0  0  0  0
 29 30  1  0  0  0  0
 30 31  2  0  0  0  0
 31 32  1  0  0  0  0
 31 36  1  0  0  0  0
 33 32  2  0  0  0  0
 34 30  1  0  0  0  0
 35 34  1  0  0  0  0
 36 37  1  0  0  0  0
 38 39  1  0  0  0  0
 39 40  1  0  0  0  0
M  END
>  <MODEL>
17

>  <REMARK>
 VINA RESULT:    -8.007     15.874     19.504
 INTER + INTRA:         -11.984
 INTER:                 -11.407
 INTRA:                  -0.577
 UNBOUND:                -0.934
  9 active torsions:
  status: ('A' for Active; 'I' for Inactive)
    1  A    between atoms: O4_4  and  C5_15 
    2  A    between atoms: O5_5  and  C10_20 
    3  A    between atoms: O7_7  and  C18_28 
    4  A    between atoms: O8_8  and  C20_30 
    5  A    between atoms: O9_9  and  C22_32 
    6  A    between atoms: O10_10  and  C24_34 
    7  A    between atoms: C1_11  and  C8_18 
    8  A    between atoms: C2_12  and  C10_20 
    9  A    between atoms: C3_13  and  C4_14 

>  <TORSDO>
F 9

$$$$
./Silimarina.pdbqt
 OpenBabel10282519553D

 40 44  0  0  1  0  0  0  0  0999 V2000
  -42.9480   26.0360    1.1970 O   0  0  0  0  0  0  0  0  0  0  0  0
  -44.8740   24.5400    2.7050 O   0  0  0  0  0  0  0  0  0  0  0  0
  -43.3230   24.6930    0.8510 C   0  0  1  0  0  3  0  0  0  0  0  0
  -44.7820   24.4460    1.2790 C   0  0  1  0  0  3  0  0  0  0  0  0
  -43.0610   27.8930    4.3030 C   0  0  0  0  0  0  0  0  0  0  0  0
  -43.3090   26.3740    2.4700 C   0  0  0  0  0  0  0  0  0  0  0  0
  -44.2630   25.6540    3.2040 C   0  0  0  0  0  0  0  0  0  0  0  0
  -42.7050   27.5040    3.0100 C   0  0  0  0  0  3  0  0  0  0  0  0
  -43.9950   27.1670    5.0430 C   0  0  0  0  0  3  0  0  0  0  0  0
  -44.6060   26.0390    4.4960 C   0  0  0  0  0  3  0  0  0  0  0  0
  -42.4210   29.1320    4.8570 C   0  0  2  0  0  3  0  0  0  0  0  0
  -42.6710   30.1550    3.8760 O   0  0  0  0  0  0  0  0  0  0  0  0
  -41.8280   31.1950    3.7810 C   0  0  0  0  0  0  0  0  0  0  0  0
  -40.6130   31.2910    4.4860 C   0  0  0  0  0  0  0  0  0  0  0  0
  -42.2630   32.1890    2.9010 C   0  0  0  0  0  3  0  0  0  0  0  0
  -40.2250   30.2260    5.3900 C   0  0  0  0  0  0  0  0  0  0  0  0
  -39.8290   32.4400    4.2740 C   0  0  0  0  0  0  0  0  0  0  0  0
  -39.4470   30.3100    6.3070 O   0  0  0  0  0  0  0  0  0  0  0  0
  -40.9190   28.8940    5.1040 C   0  0  1  0  0  3  0  0  0  0  0  0
  -40.2220   33.4630    3.4070 C   0  0  0  0  0  3  0  0  0  0  0  0
  -41.4410   33.3070    2.7360 C   0  0  0  0  0  0  0  0  0  0  0  0
  -40.8410   28.0180    6.2020 O   0  0  0  0  0  0  0  0  0  0  0  0
  -40.9820   28.5200    7.0450 H   0  0  0  0  0  0  0  0  0  0  0  0
  -38.6590   32.4810    4.9320 O   0  0  0  0  0  0  0  0  0  0  0  0
  -37.8820   32.2810    4.3450 H   0  0  0  0  0  0  0  0  0  0  0  0
  -41.9060   34.2370    1.8780 O   0  0  0  0  0  0  0  0  0  0  0  0
  -42.3330   33.8390    1.0760 H   0  0  0  0  0  0  0  0  0  0  0  0
  -43.1650   24.6170   -0.6370 C   0  0  0  0  0  0  0  0  0  0  0  0
  -43.3180   25.7680   -1.4080 C   0  0  0  0  0  3  0  0  0  0  0  0
  -43.1880   25.6960   -2.7990 C   0  0  0  0  0  0  0  0  0  0  0  0
  -42.8970   24.4530   -3.3930 C   0  0  0  0  0  0  0  0  0  0  0  0
  -42.7440   23.3080   -2.6180 C   0  0  0  0  0  3  0  0  0  0  0  0
  -42.8750   23.3910   -1.2330 C   0  0  0  0  0  3  0  0  0  0  0  0
  -43.3930   26.8850   -3.4160 O   0  0  0  0  0  0  0  0  0  0  0  0
  -44.5120   27.6610   -3.0000 C   0  0  0  0  0  1  0  0  0  0  0  0
  -42.7540   24.4230   -4.7480 O   0  0  0  0  0  0  0  0  0  0  0  0
  -42.7550   25.3340   -5.1340 H   0  0  0  0  0  0  0  0  0  0  0  0
  -45.2760   23.0250    0.9720 C   0  0  0  0  0  2  0  0  0  0  0  0
  -44.4970   22.0860    1.6730 O   0  0  0  0  0  0  0  0  0  0  0  0
  -44.1830   21.3740    1.0710 H   0  0  0  0  0  0  0  0  0  0  0  0
  1  6  1  0  0  0  0
  2  7  1  0  0  0  0
  3 28  1  6  0  0  0
  3  1  1  0  0  0  0
  3  4  1  0  0  0  0
  4 38  1  1  0  0  0
  4  2  1  0  0  0  0
  5  9  1  0  0  0  0
  6  8  1  0  0  0  0
  6  7  2  0  0  0  0
  7 10  1  0  0  0  0
  8  5  2  0  0  0  0
 10  9  2  0  0  0  0
 11  5  1  6  0  0  0
 11 19  1  0  0  0  0
 12 11  1  0  0  0  0
 13 12  1  0  0  0  0
 13 14  1  0  0  0  0
 14 16  1  0  0  0  0
 15 13  2  0  0  0  0
 16 18  2  0  0  0  0
 17 14  2  0  0  0  0
 17 24  1  0  0  0  0
 19 16  1  0  0  0  0
 19 22  1  1  0  0  0
 20 17  1  0  0  0  0
 21 15  1  0  0  0  0
 21 20  2  0  0  0  0
 22 23  1  0  0  0  0
 25 24  1  0  0  0  0
 26 21  1  0  0  0  0
 27 26  1  0  0  0  0
 29 28  2  0  0  0  0
 30 29  1  0  0  0  0
 31 30  2  0  0  0  0
 31 32  1  0  0  0  0
 32 33  2  0  0  0  0
 33 28  1  0  0  0  0
 34 35  1  0  0  0  0
 34 30  1  0  0  0  0
 36 31  1  0  0  0  0
 37 36  1  0  0  0  0
 38 39  1  0  0  0  0
 40 39  1  0  0  0  0
M  END
>  <MODEL>
18

>  <REMARK>
 VINA RESULT:    -7.920      2.241      9.565
 INTER + INTRA:         -11.864
 INTER:                 -11.038
 INTRA:                  -0.827
 UNBOUND:                -0.934
  9 active torsions:
  status: ('A' for Active; 'I' for Inactive)
    1  A    between atoms: O4_4  and  C5_15 
    2  A    between atoms: O5_5  and  C10_20 
    3  A    between atoms: O7_7  and  C18_28 
    4  A    between atoms: O8_8  and  C20_30 
    5  A    between atoms: O9_9  and  C22_32 
    6  A    between atoms: O10_10  and  C24_34 
    7  A    between atoms: C1_11  and  C8_18 
    8  A    between atoms: C2_12  and  C10_20 
    9  A    between atoms: C3_13  and  C4_14 

>  <TORSDO>
F 9

$$$$
./Silimarina.pdbqt
 OpenBabel10282519553D

 40 44  0  0  1  0  0  0  0  0999 V2000
  -44.4780   27.4050   -1.0560 O   0  0  0  0  0  0  0  0  0  0  0  0
  -47.2700   27.9940   -0.7820 O   0  0  0  0  0  0  0  0  0  0  0  0
  -45.4970   26.6210   -1.6970 C   0  0  1  0  0  3  0  0  0  0  0  0
  -46.7070   27.5200   -2.0110 C   0  0  1  0  0  3  0  0  0  0  0  0
  -44.5000   29.5450    1.8640 C   0  0  0  0  0  0  0  0  0  0  0  0
  -44.9680   28.1920   -0.0540 C   0  0  0  0  0  0  0  0  0  0  0  0
  -46.3320   28.4960    0.0730 C   0  0  0  0  0  0  0  0  0  0  0  0
  -44.0390   28.7200    0.8360 C   0  0  0  0  0  3  0  0  0  0  0  0
  -45.8580   29.8330    2.0040 C   0  0  0  0  0  3  0  0  0  0  0  0
  -46.7870   29.3090    1.1060 C   0  0  0  0  0  3  0  0  0  0  0  0
  -43.4790   30.1290    2.7960 C   0  0  2  0  0  3  0  0  0  0  0  0
  -42.7520   31.0870    2.0050 O   0  0  0  0  0  0  0  0  0  0  0  0
  -41.4870   31.3880    2.3350 C   0  0  0  0  0  0  0  0  0  0  0  0
  -40.7520   30.7180    3.3320 C   0  0  0  0  0  0  0  0  0  0  0  0
  -40.9470   32.4370    1.5860 C   0  0  0  0  0  3  0  0  0  0  0  0
  -41.3760   29.6420    4.0770 C   0  0  0  0  0  0  0  0  0  0  0  0
  -39.4300   31.1400    3.5580 C   0  0  0  0  0  0  0  0  0  0  0  0
  -41.0430   29.2310    5.1620 O   0  0  0  0  0  0  0  0  0  0  0  0
  -42.5770   29.0180    3.3670 C   0  0  1  0  0  3  0  0  0  0  0  0
  -38.8460   32.1870    2.8380 C   0  0  0  0  0  3  0  0  0  0  0  0
  -39.6300   32.8120    1.8610 C   0  0  0  0  0  0  0  0  0  0  0  0
  -43.3840   28.2830    4.2540 O   0  0  0  0  0  0  0  0  0  0  0  0
  -43.9000   27.5990    3.7540 H   0  0  0  0  0  0  0  0  0  0  0  0
  -38.7460   30.4540    4.4880 O   0  0  0  0  0  0  0  0  0  0  0  0
  -39.3310   30.0970    5.2090 H   0  0  0  0  0  0  0  0  0  0  0  0
  -39.1570   33.8290    1.1120 O   0  0  0  0  0  0  0  0  0  0  0  0
  -39.7700   34.0800    0.3750 H   0  0  0  0  0  0  0  0  0  0  0  0
  -44.8580   26.1010   -2.9480 C   0  0  0  0  0  0  0  0  0  0  0  0
  -44.7620   24.7250   -3.1550 C   0  0  0  0  0  3  0  0  0  0  0  0
  -44.1500   24.2370   -4.3140 C   0  0  0  0  0  0  0  0  0  0  0  0
  -43.6460   25.1540   -5.2570 C   0  0  0  0  0  0  0  0  0  0  0  0
  -43.7450   26.5250   -5.0450 C   0  0  0  0  0  3  0  0  0  0  0  0
  -44.3570   27.0010   -3.8870 C   0  0  0  0  0  3  0  0  0  0  0  0
  -44.1040   22.8840   -4.3630 O   0  0  0  0  0  0  0  0  0  0  0  0
  -45.3120   22.1720   -4.1180 C   0  0  0  0  0  1  0  0  0  0  0  0
  -43.0770   24.6440   -6.3850 O   0  0  0  0  0  0  0  0  0  0  0  0
  -42.0900   24.6940   -6.3490 H   0  0  0  0  0  0  0  0  0  0  0  0
  -47.8680   26.7700   -2.6810 C   0  0  0  0  0  2  0  0  0  0  0  0
  -48.8910   27.6760   -3.0190 O   0  0  0  0  0  0  0  0  0  0  0  0
  -49.1150   27.6090   -3.9740 H   0  0  0  0  0  0  0  0  0  0  0  0
  1  6  1  0  0  0  0
  2  7  1  0  0  0  0
  3 28  1  6  0  0  0
  3  1  1  0  0  0  0
  4 38  1  1  0  0  0
  4  3  1  0  0  0  0
  4  2  1  0  0  0  0
  5  9  1  0  0  0  0
  6  7  2  0  0  0  0
  6  8  1  0  0  0  0
  7 10  1  0  0  0  0
  8  5  2  0  0  0  0
 10  9  2  0  0  0  0
 11  5  1  6  0  0  0
 11 19  1  0  0  0  0
 12 13  1  0  0  0  0
 12 11  1  0  0  0  0
 13 14  1  0  0  0  0
 14 17  2  0  0  0  0
 14 16  1  0  0  0  0
 15 21  1  0  0  0  0
 15 13  2  0  0  0  0
 16 18  2  0  0  0  0
 17 24  1  0  0  0  0
 19 16  1  0  0  0  0
 19 22  1  1  0  0  0
 20 17  1  0  0  0  0
 21 20  2  0  0  0  0
 23 22  1  0  0  0  0
 24 25  1  0  0  0  0
 26 21  1  0  0  0  0
 27 26  1  0  0  0  0
 29 28  1  0  0  0  0
 30 29  2  0  0  0  0
 31 32  2  0  0  0  0
 31 30  1  0  0  0  0
 32 33  1  0  0  0  0
 33 28  2  0  0  0  0
 34 30  1  0  0  0  0
 34 35  1  0  0  0  0
 36 37  1  0  0  0  0
 36 31  1  0  0  0  0
 39 38  1  0  0  0  0
 40 39  1  0  0  0  0
M  END
>  <MODEL>
19

>  <REMARK>
 VINA RESULT:    -7.888      2.291      9.258
 INTER + INTRA:         -11.820
 INTER:                 -10.863
 INTRA:                  -0.957
 UNBOUND:                -0.934
  9 active torsions:
  status: ('A' for Active; 'I' for Inactive)
    1  A    between atoms: O4_4  and  C5_15 
    2  A    between atoms: O5_5  and  C10_20 
    3  A    between atoms: O7_7  and  C18_28 
    4  A    between atoms: O8_8  and  C20_30 
    5  A    between atoms: O9_9  and  C22_32 
    6  A    between atoms: O10_10  and  C24_34 
    7  A    between atoms: C1_11  and  C8_18 
    8  A    between atoms: C2_12  and  C10_20 
    9  A    between atoms: C3_13  and  C4_14 

>  <TORSDO>
F 9

$$$$
./Silimarina.pdbqt
 OpenBabel10282519553D

 40 44  0  0  1  0  0  0  0  0999 V2000
  -43.5200   26.9900   -0.3630 O   0  0  0  0  0  0  0  0  0  0  0  0
  -45.4770   28.4060   -1.9070 O   0  0  0  0  0  0  0  0  0  0  0  0
  -44.4600   26.3180   -1.2170 C   0  0  1  0  0  3  0  0  0  0  0  0
  -44.8150   27.2360   -2.4020 C   0  0  1  0  0  3  0  0  0  0  0  0
  -43.5620   30.2180    1.2760 C   0  0  0  0  0  0  0  0  0  0  0  0
  -43.8800   28.2780   -0.0900 C   0  0  0  0  0  0  0  0  0  0  0  0
  -44.8240   28.9800   -0.8550 C   0  0  0  0  0  0  0  0  0  0  0  0
  -43.2350   28.8940    0.9770 C   0  0  0  0  0  3  0  0  0  0  0  0
  -44.5160   30.9110    0.5290 C   0  0  0  0  0  3  0  0  0  0  0  0
  -45.1550   30.2950   -0.5450 C   0  0  0  0  0  3  0  0  0  0  0  0
  -42.8340   30.8740    2.4110 C   0  0  2  0  0  3  0  0  0  0  0  0
  -41.8610   31.7330    1.7890 O   0  0  0  0  0  0  0  0  0  0  0  0
  -40.7360   32.0410    2.4510 C   0  0  0  0  0  0  0  0  0  0  0  0
  -40.3600   31.4620    3.6780 C   0  0  0  0  0  0  0  0  0  0  0  0
  -39.9490   32.9990    1.8050 C   0  0  0  0  0  3  0  0  0  0  0  0
  -41.2260   30.4800    4.2990 C   0  0  0  0  0  0  0  0  0  0  0  0
  -39.1430   31.8800    4.2480 C   0  0  0  0  0  0  0  0  0  0  0  0
  -41.2470   30.1740    5.4660 O   0  0  0  0  0  0  0  0  0  0  0  0
  -42.1940   29.8100    3.3240 C   0  0  1  0  0  3  0  0  0  0  0  0
  -38.3240   32.8370    3.6420 C   0  0  0  0  0  3  0  0  0  0  0  0
  -38.7550   33.3750    2.4230 C   0  0  0  0  0  0  0  0  0  0  0  0
  -43.2610   29.1840    3.9940 O   0  0  0  0  0  0  0  0  0  0  0  0
  -43.0150   28.2510    4.2240 H   0  0  0  0  0  0  0  0  0  0  0  0
  -38.7970   31.2790    5.3980 O   0  0  0  0  0  0  0  0  0  0  0  0
  -37.9110   30.8310    5.3450 H   0  0  0  0  0  0  0  0  0  0  0  0
  -38.0340   34.3010    1.7590 O   0  0  0  0  0  0  0  0  0  0  0  0
  -38.4700   34.5960    0.9190 H   0  0  0  0  0  0  0  0  0  0  0  0
  -43.7550   25.0780   -1.6720 C   0  0  0  0  0  0  0  0  0  0  0  0
  -43.2430   25.0100   -2.9680 C   0  0  0  0  0  3  0  0  0  0  0  0
  -42.5990   23.8460   -3.4010 C   0  0  0  0  0  0  0  0  0  0  0  0
  -42.4760   22.7630   -2.5090 C   0  0  0  0  0  0  0  0  0  0  0  0
  -42.9880   22.8370   -1.2180 C   0  0  0  0  0  3  0  0  0  0  0  0
  -43.6260   24.0020   -0.7960 C   0  0  0  0  0  3  0  0  0  0  0  0
  -42.1830   23.9160   -4.6880 O   0  0  0  0  0  0  0  0  0  0  0  0
  -43.1450   23.6730   -5.7090 C   0  0  0  0  0  1  0  0  0  0  0  0
  -41.8220   21.6540   -2.9560 O   0  0  0  0  0  0  0  0  0  0  0  0
  -40.8720   21.6580   -2.6850 H   0  0  0  0  0  0  0  0  0  0  0  0
  -45.8360   26.6180   -3.3690 C   0  0  0  0  0  2  0  0  0  0  0  0
  -47.0230   27.3740   -3.3590 O   0  0  0  0  0  0  0  0  0  0  0  0
  -47.8010   26.8040   -3.5460 H   0  0  0  0  0  0  0  0  0  0  0  0
  1  6  1  0  0  0  0
  2  7  1  0  0  0  0
  3 28  1  6  0  0  0
  3  1  1  0  0  0  0
  4 38  1  6  0  0  0
  4  2  1  0  0  0  0
  4  3  1  0  0  0  0
  6  8  2  0  0  0  0
  7 10  2  0  0  0  0
  7  6  1  0  0  0  0
  8  5  1  0  0  0  0
  9  5  2  0  0  0  0
 10  9  1  0  0  0  0
 11  5  1  6  0  0  0
 11 19  1  0  0  0  0
 12 11  1  0  0  0  0
 12 13  1  0  0  0  0
 13 14  1  0  0  0  0
 14 17  2  0  0  0  0
 14 16  1  0  0  0  0
 15 21  1  0  0  0  0
 15 13  2  0  0  0  0
 16 18  2  0  0  0  0
 17 24  1  0  0  0  0
 19 22  1  1  0  0  0
 19 16  1  0  0  0  0
 20 17  1  0  0  0  0
 21 20  2  0  0  0  0
 22 23  1  0  0  0  0
 25 24  1  0  0  0  0
 26 21  1  0  0  0  0
 27 26  1  0  0  0  0
 28 33  1  0  0  0  0
 29 28  2  0  0  0  0
 30 29  1  0  0  0  0
 30 31  2  0  0  0  0
 31 32  1  0  0  0  0
 32 33  2  0  0  0  0
 34 30  1  0  0  0  0
 35 34  1  0  0  0  0
 36 37  1  0  0  0  0
 36 31  1  0  0  0  0
 38 39  1  0  0  0  0
 40 39  1  0  0  0  0
M  END
>  <MODEL>
20

>  <REMARK>
 VINA RESULT:    -7.818      1.751      9.216
 INTER + INTRA:         -11.722
 INTER:                 -11.525
 INTRA:                  -0.197
 UNBOUND:                -0.934
  9 active torsions:
  status: ('A' for Active; 'I' for Inactive)
    1  A    between atoms: O4_4  and  C5_15 
    2  A    between atoms: O5_5  and  C10_20 
    3  A    between atoms: O7_7  and  C18_28 
    4  A    between atoms: O8_8  and  C20_30 
    5  A    between atoms: O9_9  and  C22_32 
    6  A    between atoms: O10_10  and  C24_34 
    7  A    between atoms: C1_11  and  C8_18 
    8  A    between atoms: C2_12  and  C10_20 
    9  A    between atoms: C3_13  and  C4_14 

>  <TORSDO>
F 9

$$$$
