./Suberogorgina.pdbqt
 OpenBabel10282519553D

 18 20  0  0  1  0  0  0  0  0999 V2000
  -43.8710   29.8740    4.3720 O   0  0  0  0  0  0  0  0  0  0  0  0
  -42.1850   31.4080    3.5370 C   0  0  1  0  0  0  0  0  0  0  0  0
  -42.3740   32.6780    2.6670 C   0  0  1  0  0  3  0  0  0  0  0  0
  -41.2090   30.4660    2.7210 C   0  0  1  0  0  0  0  0  0  0  0  0
  -41.4820   31.6070    4.9200 C   0  0  1  0  0  3  0  0  0  0  0  0
  -41.3080   32.6140    1.5630 C   0  0  0  0  0  2  0  0  0  0  0  0
  -41.0500   31.1190    1.3310 C   0  0  0  0  0  2  0  0  0  0  0  0
  -43.8140   32.6190    2.0880 C   0  0  1  0  0  3  0  0  0  0  0  0
  -43.5710   30.8470    3.7330 C   0  0  0  0  0  0  0  0  0  0  0  0
  -44.6090   31.6980    3.0260 C   0  0  0  0  0  2  0  0  0  0  0  0
  -39.9200   30.5350    3.5040 C   0  0  0  0  0  2  0  0  0  0  0  0
  -40.0600   31.1740    4.6690 C   0  0  2  0  0  3  0  0  0  0  0  0
  -41.6930   29.0230    2.6130 C   0  0  0  0  0  1  0  0  0  0  0  0
  -41.5750   33.0040    5.5170 C   0  0  0  0  0  1  0  0  0  0  0  0
  -44.4360   34.0100    1.9860 C   0  0  0  0  0  1  0  0  0  0  0  0
  -38.9610   31.4270    5.7010 C   0  0  0  0  0  0  0  0  0  0  0  0
  -38.9450   30.6500    6.6620 O   0  0  0  0  0  1  0  0  0  0  0  0
  -38.2050   32.3770    5.4560 O   0  0  0  0  0  0  0  0  0  0  0  0
  2  9  1  1  0  0  0
  2  5  1  0  0  0  0
  3  6  1  6  0  0  0
  3  2  1  0  0  0  0
  4 13  1  6  0  0  0
  4 11  1  0  0  0  0
  4  2  1  0  0  0  0
  5 14  1  6  0  0  0
  7  6  1  0  0  0  0
  7  4  1  0  0  0  0
  8 15  1  1  0  0  0
  8  3  1  0  0  0  0
  8 10  1  0  0  0  0
  9  1  2  0  0  0  0
 10  9  1  0  0  0  0
 11 12  1  0  0  0  0
 12  5  1  0  0  0  0
 12 16  1  1  0  0  0
 16 17  1  0  0  0  0
 18 16  2  0  0  0  0
M  END
>  <MODEL>
1

>  <REMARK>
 VINA RESULT:    -7.034      0.000      0.000
 INTER + INTRA:          -7.574
 INTER:                  -7.445
 INTRA:                  -0.128
 UNBOUND:                -0.128
  1 active torsions:
  status: ('A' for Active; 'I' for Inactive)
    1  A    between atoms: C11_14  and  C15_18 

>  <TORSDO>
F 1

$$$$
./Suberogorgina.pdbqt
 OpenBabel10282519553D

 18 20  0  0  1  0  0  0  0  0999 V2000
  -40.3250   33.9200    3.1280 O   0  0  0  0  0  0  0  0  0  0  0  0
  -42.1270   32.2960    3.0400 C   0  0  1  0  0  0  0  0  0  0  0  0
  -42.9990   31.7490    4.2010 C   0  0  1  0  0  3  0  0  0  0  0  0
  -41.4430   31.0300    2.3800 C   0  0  1  0  0  0  0  0  0  0  0  0
  -42.8860   32.9950    1.8650 C   0  0  1  0  0  3  0  0  0  0  0  0
  -43.0710   30.2260    4.0130 C   0  0  0  0  0  2  0  0  0  0  0  0
  -41.7640   29.8390    3.3090 C   0  0  0  0  0  2  0  0  0  0  0  0
  -42.2850   32.1380    5.5240 C   0  0  1  0  0  3  0  0  0  0  0  0
  -41.1620   33.2590    3.6840 C   0  0  0  0  0  0  0  0  0  0  0  0
  -41.3840   33.3350    5.1820 C   0  0  0  0  0  2  0  0  0  0  0  0
  -42.1590   30.8950    1.0580 C   0  0  0  0  0  2  0  0  0  0  0  0
  -42.9570   31.9350    0.7970 C   0  0  2  0  0  3  0  0  0  0  0  0
  -39.9420   31.1850    2.1610 C   0  0  0  0  0  1  0  0  0  0  0  0
  -44.2520   33.5750    2.2100 C   0  0  0  0  0  1  0  0  0  0  0  0
  -43.2870   32.4690    6.6270 C   0  0  0  0  0  1  0  0  0  0  0  0
  -43.8280   32.1190   -0.4460 C   0  0  0  0  0  0  0  0  0  0  0  0
  -43.6040   33.1400   -1.1060 O   0  0  0  0  0  0  0  0  0  0  0  0
  -44.6550   31.2220   -0.6580 O   0  0  0  0  0  1  0  0  0  0  0  0
  1  9  2  0  0  0  0
  2  9  1  1  0  0  0
  2  3  1  0  0  0  0
  3  6  1  6  0  0  0
  3  8  1  0  0  0  0
  4 13  1  6  0  0  0
  4  2  1  0  0  0  0
  4  7  1  0  0  0  0
  5 14  1  1  0  0  0
  5  2  1  0  0  0  0
  7  6  1  0  0  0  0
  8 15  1  1  0  0  0
  9 10  1  0  0  0  0
 10  8  1  0  0  0  0
 11  4  1  0  0  0  0
 12 16  1  6  0  0  0
 12 11  1  0  0  0  0
 12  5  1  0  0  0  0
 17 16  2  0  0  0  0
 18 16  1  0  0  0  0
M  END
>  <MODEL>
2

>  <REMARK>
 VINA RESULT:    -6.552      2.444      4.891
 INTER + INTRA:          -7.063
 INTER:                  -6.943
 INTRA:                  -0.120
 UNBOUND:                -0.128
  1 active torsions:
  status: ('A' for Active; 'I' for Inactive)
    1  A    between atoms: C11_14  and  C15_18 

>  <TORSDO>
F 1

$$$$
./Suberogorgina.pdbqt
 OpenBabel10282519553D

 18 20  0  0  1  0  0  0  0  0999 V2000
  -33.5020   39.2540   11.2310 O   0  0  0  0  0  0  0  0  0  0  0  0
  -35.7100   40.0810   10.6540 C   0  0  1  0  0  0  0  0  0  0  0  0
  -37.0650   39.3250   10.6710 C   0  0  1  0  0  3  0  0  0  0  0  0
  -35.5260   40.6050    9.1720 C   0  0  1  0  0  0  0  0  0  0  0  0
  -35.6150   41.3630   11.5440 C   0  0  1  0  0  3  0  0  0  0  0  0
  -37.7770   39.6750    9.3560 C   0  0  0  0  0  2  0  0  0  0  0  0
  -36.6560   39.9520    8.3450 C   0  0  0  0  0  2  0  0  0  0  0  0
  -36.7360   37.8100   10.7680 C   0  0  1  0  0  3  0  0  0  0  0  0
  -34.6810   39.0680   11.0870 C   0  0  0  0  0  0  0  0  0  0  0  0
  -35.3230   37.7220   11.3660 C   0  0  0  0  0  2  0  0  0  0  0  0
  -35.7380   42.0940    9.2980 C   0  0  0  0  0  2  0  0  0  0  0  0
  -35.8160   42.4950   10.5700 C   0  0  2  0  0  3  0  0  0  0  0  0
  -34.1520   40.3090    8.5800 C   0  0  0  0  0  1  0  0  0  0  0  0
  -36.5740   41.4240   12.7250 C   0  0  0  0  0  1  0  0  0  0  0  0
  -37.7660   37.0640   11.6130 C   0  0  0  0  0  1  0  0  0  0  0  0
  -36.0310   43.9290   11.0560 C   0  0  0  0  0  0  0  0  0  0  0  0
  -37.1560   44.3980   10.8510 O   0  0  0  0  0  0  0  0  0  0  0  0
  -35.0570   44.4590   11.6080 O   0  0  0  0  0  1  0  0  0  0  0  0
  2  3  1  0  0  0  0
  2  9  1  1  0  0  0
  2  5  1  0  0  0  0
  3  6  1  6  0  0  0
  3  8  1  0  0  0  0
  4 13  1  6  0  0  0
  4 11  1  0  0  0  0
  4  2  1  0  0  0  0
  5 14  1  1  0  0  0
  7  4  1  0  0  0  0
  7  6  1  0  0  0  0
  8 10  1  0  0  0  0
  8 15  1  1  0  0  0
  9  1  2  0  0  0  0
  9 10  1  0  0  0  0
 11 12  1  0  0  0  0
 12 16  1  1  0  0  0
 12  5  1  0  0  0  0
 16 18  1  0  0  0  0
 17 16  2  0  0  0  0
M  END
>  <MODEL>
3

>  <REMARK>
 VINA RESULT:    -6.487     11.167     13.310
 INTER + INTRA:          -6.994
 INTER:                  -6.838
 INTRA:                  -0.156
 UNBOUND:                -0.128
  1 active torsions:
  status: ('A' for Active; 'I' for Inactive)
    1  A    between atoms: C11_14  and  C15_18 

>  <TORSDO>
F 1

$$$$
./Suberogorgina.pdbqt
 OpenBabel10282519553D

 18 20  0  0  1  0  0  0  0  0999 V2000
  -38.0040   41.3330    9.2700 O   0  0  0  0  0  0  0  0  0  0  0  0
  -36.3330   40.1260   10.5500 C   0  0  1  0  0  0  0  0  0  0  0  0
  -34.8730   39.7780   10.1580 C   0  0  1  0  0  3  0  0  0  0  0  0
  -37.0390   38.7420   10.8560 C   0  0  1  0  0  0  0  0  0  0  0  0
  -36.5240   40.9670   11.8550 C   0  0  1  0  0  3  0  0  0  0  0  0
  -34.6580   38.3040   10.5350 C   0  0  0  0  0  2  0  0  0  0  0  0
  -36.0410   37.6480   10.4210 C   0  0  0  0  0  2  0  0  0  0  0  0
  -34.7490   40.0100    8.6270 C   0  0  1  0  0  3  0  0  0  0  0  0
  -36.9010   40.8640    9.3660 C   0  0  0  0  0  0  0  0  0  0  0  0
  -35.8740   40.9890    8.2560 C   0  0  0  0  0  2  0  0  0  0  0  0
  -37.2050   38.7590   12.3570 C   0  0  0  0  0  2  0  0  0  0  0  0
  -36.8980   39.9430   12.8950 C   0  0  2  0  0  3  0  0  0  0  0  0
  -38.3910   38.5760   10.1710 C   0  0  0  0  0  1  0  0  0  0  0  0
  -35.3360   41.8230   12.2720 C   0  0  0  0  0  1  0  0  0  0  0  0
  -33.3710   40.5480    8.2500 C   0  0  0  0  0  1  0  0  0  0  0  0
  -36.9510   40.3040   14.3800 C   0  0  0  0  0  0  0  0  0  0  0  0
  -37.9270   40.9760   14.7300 O   0  0  0  0  0  0  0  0  0  0  0  0
  -36.0130   39.8780   15.0680 O   0  0  0  0  0  1  0  0  0  0  0  0
  1  9  2  0  0  0  0
  2  9  1  6  0  0  0
  2  4  1  0  0  0  0
  2  5  1  0  0  0  0
  3  6  1  6  0  0  0
  3  2  1  0  0  0  0
  4 13  1  6  0  0  0
  4 11  1  0  0  0  0
  5 14  1  1  0  0  0
  5 12  1  0  0  0  0
  7  6  1  0  0  0  0
  7  4  1  0  0  0  0
  8 15  1  1  0  0  0
  8  3  1  0  0  0  0
 10  8  1  0  0  0  0
 10  9  1  0  0  0  0
 11 12  1  0  0  0  0
 12 16  1  6  0  0  0
 16 17  2  0  0  0  0
 16 18  1  0  0  0  0
M  END
>  <MODEL>
4

>  <REMARK>
 VINA RESULT:    -6.449     10.821     12.902
 INTER + INTRA:          -6.954
 INTER:                  -6.813
 INTRA:                  -0.141
 UNBOUND:                -0.128
  1 active torsions:
  status: ('A' for Active; 'I' for Inactive)
    1  A    between atoms: C11_14  and  C15_18 

>  <TORSDO>
F 1

$$$$
./Suberogorgina.pdbqt
 OpenBabel10282519553D

 18 20  0  0  1  0  0  0  0  0999 V2000
  -43.1200   30.2670   -0.6120 O   0  0  0  0  0  0  0  0  0  0  0  0
  -43.0140   31.3960    1.5340 C   0  0  1  0  0  0  0  0  0  0  0  0
  -43.7220   31.0250    2.8640 C   0  0  1  0  0  3  0  0  0  0  0  0
  -43.4810   32.8700    1.1930 C   0  0  1  0  0  0  0  0  0  0  0  0
  -41.4520   31.4730    1.5730 C   0  0  1  0  0  3  0  0  0  0  0  0
  -44.3050   32.3290    3.4270 C   0  0  0  0  0  2  0  0  0  0  0  0
  -44.5980   33.2080    2.2040 C   0  0  0  0  0  2  0  0  0  0  0  0
  -44.8320   29.9960    2.5120 C   0  0  1  0  0  3  0  0  0  0  0  0
  -43.4600   30.3560    0.5390 C   0  0  0  0  0  0  0  0  0  0  0  0
  -44.4130   29.3630    1.1760 C   0  0  0  0  0  2  0  0  0  0  0  0
  -42.2450   33.6970    1.4540 C   0  0  0  0  0  2  0  0  0  0  0  0
  -41.1650   32.9470    1.6880 C   0  0  2  0  0  3  0  0  0  0  0  0
  -43.9500   33.0490   -0.2470 C   0  0  0  0  0  1  0  0  0  0  0  0
  -40.7750   30.6540    2.6630 C   0  0  0  0  0  1  0  0  0  0  0  0
  -45.0020   28.9540    3.6140 C   0  0  0  0  0  1  0  0  0  0  0  0
  -39.7560   33.4590    1.9910 C   0  0  0  0  0  0  0  0  0  0  0  0
  -39.1000   33.8270    1.0100 O   0  0  0  0  0  0  0  0  0  0  0  0
  -39.4300   33.4540    3.1860 O   0  0  0  0  0  1  0  0  0  0  0  0
  1  9  2  0  0  0  0
  2  9  1  6  0  0  0
  2  5  1  0  0  0  0
  2  3  1  0  0  0  0
  3  6  1  6  0  0  0
  4 13  1  6  0  0  0
  4 11  1  0  0  0  0
  4  2  1  0  0  0  0
  4  7  1  0  0  0  0
  5 12  1  0  0  0  0
  5 14  1  1  0  0  0
  7  6  1  0  0  0  0
  8  3  1  0  0  0  0
  8 15  1  1  0  0  0
  9 10  1  0  0  0  0
 10  8  1  0  0  0  0
 11 12  1  0  0  0  0
 12 16  1  6  0  0  0
 16 18  1  0  0  0  0
 17 16  2  0  0  0  0
M  END
>  <MODEL>
5

>  <REMARK>
 VINA RESULT:    -6.399      2.410      4.018
 INTER + INTRA:          -6.901
 INTER:                  -6.949
 INTRA:                   0.048
 UNBOUND:                -0.128
  1 active torsions:
  status: ('A' for Active; 'I' for Inactive)
    1  A    between atoms: C11_14  and  C15_18 

>  <TORSDO>
F 1

$$$$
./Suberogorgina.pdbqt
 OpenBabel10282519553D

 18 20  0  0  1  0  0  0  0  0999 V2000
  -40.1480   31.6160    1.1460 O   0  0  0  0  0  0  0  0  0  0  0  0
  -41.6790   31.3800    3.0140 C   0  0  1  0  0  0  0  0  0  0  0  0
  -42.9520   32.2060    3.3370 C   0  0  1  0  0  3  0  0  0  0  0  0
  -40.7370   31.5270    4.2770 C   0  0  1  0  0  0  0  0  0  0  0  0
  -41.8730   29.8380    2.8400 C   0  0  1  0  0  3  0  0  0  0  0  0
  -42.8870   32.5410    4.8350 C   0  0  0  0  0  2  0  0  0  0  0  0
  -41.3920   32.5980    5.1760 C   0  0  0  0  0  2  0  0  0  0  0  0
  -42.8980   33.4820    2.4540 C   0  0  1  0  0  3  0  0  0  0  0  0
  -41.1220   31.9810    1.7490 C   0  0  0  0  0  0  0  0  0  0  0  0
  -41.9770   33.1400    1.2720 C   0  0  0  0  0  2  0  0  0  0  0  0
  -40.8010   30.1640    4.9220 C   0  0  0  0  0  2  0  0  0  0  0  0
  -41.4370   29.2660    4.1650 C   0  0  2  0  0  3  0  0  0  0  0  0
  -39.2960   31.8880    3.9310 C   0  0  0  0  0  1  0  0  0  0  0  0
  -43.2690   29.3860    2.4350 C   0  0  0  0  0  1  0  0  0  0  0  0
  -44.2910   33.9050    1.9920 C   0  0  0  0  0  1  0  0  0  0  0  0
  -41.6850   27.7980    4.5140 C   0  0  0  0  0  0  0  0  0  0  0  0
  -42.2440   27.5970    5.5980 O   0  0  0  0  0  1  0  0  0  0  0  0
  -41.3050   26.9760    3.6700 O   0  0  0  0  0  0  0  0  0  0  0  0
  1  9  2  0  0  0  0
  2  9  1  6  0  0  0
  2  3  1  0  0  0  0
  2  4  1  0  0  0  0
  3  6  1  1  0  0  0
  4 13  1  6  0  0  0
  4 11  1  0  0  0  0
  4  7  1  0  0  0  0
  5 14  1  1  0  0  0
  5  2  1  0  0  0  0
  5 12  1  0  0  0  0
  6  7  1  0  0  0  0
  8 15  1  6  0  0  0
  8  3  1  0  0  0  0
 10  9  1  0  0  0  0
 10  8  1  0  0  0  0
 12 16  1  6  0  0  0
 12 11  1  0  0  0  0
 16 17  1  0  0  0  0
 18 16  2  0  0  0  0
M  END
>  <MODEL>
6

>  <REMARK>
 VINA RESULT:    -6.378      2.015      3.580
 INTER + INTRA:          -6.879
 INTER:                  -6.786
 INTRA:                  -0.093
 UNBOUND:                -0.128
  1 active torsions:
  status: ('A' for Active; 'I' for Inactive)
    1  A    between atoms: C11_14  and  C15_18 

>  <TORSDO>
F 1

$$$$
./Suberogorgina.pdbqt
 OpenBabel10282519553D

 18 20  0  0  1  0  0  0  0  0999 V2000
  -44.0770   31.9970    4.5260 O   0  0  0  0  0  0  0  0  0  0  0  0
  -42.4790   31.8640    2.7050 C   0  0  1  0  0  0  0  0  0  0  0  0
  -40.9310   31.9630    2.7610 C   0  0  1  0  0  3  0  0  0  0  0  0
  -42.9490   33.0140    1.7240 C   0  0  1  0  0  0  0  0  0  0  0  0
  -43.0720   30.5530    2.0950 C   0  0  1  0  0  3  0  0  0  0  0  0
  -40.5120   32.9040    1.6220 C   0  0  0  0  0  2  0  0  0  0  0  0
  -41.6940   33.8640    1.4280 C   0  0  0  0  0  2  0  0  0  0  0  0
  -40.5660   32.5410    4.1560 C   0  0  1  0  0  3  0  0  0  0  0  0
  -42.9420   32.0340    4.1290 C   0  0  0  0  0  0  0  0  0  0  0  0
  -41.7670   32.2390    5.0660 C   0  0  0  0  0  2  0  0  0  0  0  0
  -43.3970   32.2620    0.4930 C   0  0  0  0  0  2  0  0  0  0  0  0
  -43.4330   30.9400    0.6840 C   0  0  2  0  0  3  0  0  0  0  0  0
  -44.0890   33.8650    2.2740 C   0  0  0  0  0  1  0  0  0  0  0  0
  -42.1730   29.3250    2.1570 C   0  0  0  0  0  1  0  0  0  0  0  0
  -39.2710   31.9350    4.6930 C   0  0  0  0  0  1  0  0  0  0  0  0
  -43.8350   29.8860   -0.3490 C   0  0  0  0  0  0  0  0  0  0  0  0
  -43.0830   29.7840   -1.3250 O   0  0  0  0  0  0  0  0  0  0  0  0
  -44.8640   29.2480   -0.0900 O   0  0  0  0  0  1  0  0  0  0  0  0
  2  3  1  0  0  0  0
  2  9  1  1  0  0  0
  3  6  1  6  0  0  0
  3  8  1  0  0  0  0
  4 13  1  1  0  0  0
  4  2  1  0  0  0  0
  5 14  1  6  0  0  0
  5  2  1  0  0  0  0
  7  6  1  0  0  0  0
  7  4  1  0  0  0  0
  8 15  1  1  0  0  0
  8 10  1  0  0  0  0
  9  1  2  0  0  0  0
  9 10  1  0  0  0  0
 11 12  1  0  0  0  0
 11  4  1  0  0  0  0
 12 16  1  1  0  0  0
 12  5  1  0  0  0  0
 16 18  1  0  0  0  0
 17 16  2  0  0  0  0
M  END
>  <MODEL>
7

>  <REMARK>
 VINA RESULT:    -6.370      2.305      4.954
 INTER + INTRA:          -6.871
 INTER:                  -6.721
 INTRA:                  -0.150
 UNBOUND:                -0.128
  1 active torsions:
  status: ('A' for Active; 'I' for Inactive)
    1  A    between atoms: C11_14  and  C15_18 

>  <TORSDO>
F 1

$$$$
./Suberogorgina.pdbqt
 OpenBabel10282519553D

 18 20  0  0  1  0  0  0  0  0999 V2000
  -19.6200   -1.0060   16.1690 O   0  0  0  0  0  0  0  0  0  0  0  0
  -20.4670   -1.1940   13.9030 C   0  0  1  0  0  0  0  0  0  0  0  0
  -21.9370   -1.3380   13.4240 C   0  0  1  0  0  3  0  0  0  0  0  0
  -19.7010   -2.4550   13.3310 C   0  0  1  0  0  0  0  0  0  0  0  0
  -19.6730    0.0370   13.3550 C   0  0  1  0  0  3  0  0  0  0  0  0
  -21.9430   -2.4480   12.3620 C   0  0  0  0  0  2  0  0  0  0  0  0
  -20.7860   -3.3820   12.7400 C   0  0  0  0  0  2  0  0  0  0  0  0
  -22.7820   -1.7210   14.6690 C   0  0  1  0  0  3  0  0  0  0  0  0
  -20.5410   -1.1400   15.4070 C   0  0  0  0  0  0  0  0  0  0  0  0
  -21.9750   -1.2490   15.8890 C   0  0  0  0  0  2  0  0  0  0  0  0
  -18.8340   -1.8730   12.2410 C   0  0  0  0  0  2  0  0  0  0  0  0
  -18.8430   -0.5370   12.2350 C   0  0  2  0  0  3  0  0  0  0  0  0
  -18.8460   -3.1770   14.3660 C   0  0  0  0  0  1  0  0  0  0  0  0
  -20.5130    1.2270   12.9150 C   0  0  0  0  0  1  0  0  0  0  0  0
  -24.1720   -1.0900   14.6200 C   0  0  0  0  0  1  0  0  0  0  0  0
  -18.0830    0.3710   11.2670 C   0  0  0  0  0  0  0  0  0  0  0  0
  -17.2650    1.1370   11.7880 O   0  0  0  0  0  1  0  0  0  0  0  0
  -18.3660    0.2320   10.0700 O   0  0  0  0  0  0  0  0  0  0  0  0
  2  9  1  1  0  0  0
  3  6  1  6  0  0  0
  3  2  1  0  0  0  0
  3  8  1  0  0  0  0
  4  2  1  0  0  0  0
  4 13  1  1  0  0  0
  5 14  1  6  0  0  0
  5  2  1  0  0  0  0
  6  7  1  0  0  0  0
  7  4  1  0  0  0  0
  8 15  1  6  0  0  0
  8 10  1  0  0  0  0
  9 10  1  0  0  0  0
  9  1  2  0  0  0  0
 11  4  1  0  0  0  0
 12 16  1  1  0  0  0
 12 11  1  0  0  0  0
 12  5  1  0  0  0  0
 16 17  1  0  0  0  0
 18 16  2  0  0  0  0
M  END
>  <MODEL>
8

>  <REMARK>
 VINA RESULT:    -6.288     38.401     40.304
 INTER + INTRA:          -6.784
 INTER:                  -6.652
 INTRA:                  -0.132
 UNBOUND:                -0.128
  1 active torsions:
  status: ('A' for Active; 'I' for Inactive)
    1  A    between atoms: C11_14  and  C15_18 

>  <TORSDO>
F 1

$$$$
./Suberogorgina.pdbqt
 OpenBabel10282519553D

 18 20  0  0  1  0  0  0  0  0999 V2000
  -37.8340   41.1660   14.1280 O   0  0  0  0  0  0  0  0  0  0  0  0
  -36.5190   39.6150   12.8040 C   0  0  1  0  0  0  0  0  0  0  0  0
  -35.8590   38.2800   13.2420 C   0  0  1  0  0  3  0  0  0  0  0  0
  -35.3420   40.5160   12.2490 C   0  0  1  0  0  0  0  0  0  0  0  0
  -37.5450   39.5330   11.6270 C   0  0  1  0  0  3  0  0  0  0  0  0
  -34.4340   38.2890   12.6680 C   0  0  0  0  0  2  0  0  0  0  0  0
  -34.0350   39.7680   12.5880 C   0  0  0  0  0  2  0  0  0  0  0  0
  -35.8600   38.2650   14.7950 C   0  0  1  0  0  3  0  0  0  0  0  0
  -37.1870   40.1560   14.0420 C   0  0  0  0  0  0  0  0  0  0  0  0
  -36.9720   39.2330   15.2260 C   0  0  0  0  0  2  0  0  0  0  0  0
  -35.5870   40.5340   10.7590 C   0  0  0  0  0  2  0  0  0  0  0  0
  -36.7540   39.9780   10.4240 C   0  0  2  0  0  3  0  0  0  0  0  0
  -35.3390   41.9360   12.8060 C   0  0  0  0  0  1  0  0  0  0  0  0
  -38.2150   38.1800   11.4230 C   0  0  0  0  0  1  0  0  0  0  0  0
  -36.0810   36.8560   15.3420 C   0  0  0  0  0  1  0  0  0  0  0  0
  -37.3120   39.8250    9.0080 C   0  0  0  0  0  0  0  0  0  0  0  0
  -38.2950   40.5270    8.7450 O   0  0  0  0  0  1  0  0  0  0  0  0
  -36.7130   39.0220    8.2810 O   0  0  0  0  0  0  0  0  0  0  0  0
  2  3  1  0  0  0  0
  2  9  1  1  0  0  0
  3  6  1  1  0  0  0
  3  8  1  0  0  0  0
  4  7  1  0  0  0  0
  4  2  1  0  0  0  0
  4 13  1  1  0  0  0
  5 14  1  6  0  0  0
  5  2  1  0  0  0  0
  7  6  1  0  0  0  0
  8 10  1  0  0  0  0
  8 15  1  6  0  0  0
  9  1  2  0  0  0  0
  9 10  1  0  0  0  0
 11  4  1  0  0  0  0
 12 16  1  1  0  0  0
 12 11  1  0  0  0  0
 12  5  1  0  0  0  0
 17 16  1  0  0  0  0
 18 16  2  0  0  0  0
M  END
>  <MODEL>
9

>  <REMARK>
 VINA RESULT:    -6.216     10.933     13.666
 INTER + INTRA:          -6.708
 INTER:                  -6.552
 INTRA:                  -0.156
 UNBOUND:                -0.128
  1 active torsions:
  status: ('A' for Active; 'I' for Inactive)
    1  A    between atoms: C11_14  and  C15_18 

>  <TORSDO>
F 1

$$$$
./Suberogorgina.pdbqt
 OpenBabel10282519553D

 18 20  0  0  1  0  0  0  0  0999 V2000
  -35.9750   20.7540  -15.3550 O   0  0  0  0  0  0  0  0  0  0  0  0
  -34.0840   22.2470  -15.6480 C   0  0  1  0  0  0  0  0  0  0  0  0
  -33.9150   23.4140  -16.6570 C   0  0  1  0  0  3  0  0  0  0  0  0
  -32.8800   21.2580  -15.9280 C   0  0  1  0  0  0  0  0  0  0  0  0
  -33.9580   22.6090  -14.1330 C   0  0  1  0  0  3  0  0  0  0  0  0
  -32.5100   23.2710  -17.2590 C   0  0  0  0  0  2  0  0  0  0  0  0
  -32.1970   21.7690  -17.2150 C   0  0  0  0  0  2  0  0  0  0  0  0
  -35.0270   23.2500  -17.7280 C   0  0  1  0  0  3  0  0  0  0  0  0
  -35.4450   21.6660  -15.9340 C   0  0  0  0  0  0  0  0  0  0  0  0
  -36.1280   22.4050  -17.0690 C   0  0  0  0  0  2  0  0  0  0  0  0
  -31.9850   21.4480  -14.7270 C   0  0  0  0  0  2  0  0  0  0  0  0
  -32.5520   22.1990  -13.7780 C   0  0  2  0  0  3  0  0  0  0  0  0
  -33.3000   19.7970  -16.0540 C   0  0  0  0  0  1  0  0  0  0  0  0
  -34.2580   24.0570  -13.7690 C   0  0  0  0  0  1  0  0  0  0  0  0
  -35.5490   24.6020  -18.2080 C   0  0  0  0  0  1  0  0  0  0  0  0
  -31.9260   22.5920  -12.4390 C   0  0  0  0  0  0  0  0  0  0  0  0
  -30.6960   22.4840  -12.3750 O   0  0  0  0  0  0  0  0  0  0  0  0
  -32.7180   22.9820  -11.5710 O   0  0  0  0  0  1  0  0  0  0  0  0
  2  9  1  6  0  0  0
  2  5  1  0  0  0  0
  3  6  1  6  0  0  0
  3  2  1  0  0  0  0
  4 13  1  6  0  0  0
  4  2  1  0  0  0  0
  4 11  1  0  0  0  0
  5 12  1  0  0  0  0
  5 14  1  6  0  0  0
  6  7  1  0  0  0  0
  7  4  1  0  0  0  0
  8 15  1  1  0  0  0
  8 10  1  0  0  0  0
  8  3  1  0  0  0  0
  9  1  2  0  0  0  0
 10  9  1  0  0  0  0
 11 12  1  0  0  0  0
 12 16  1  1  0  0  0
 16 17  2  0  0  0  0
 16 18  1  0  0  0  0
M  END
>  <MODEL>
10

>  <REMARK>
 VINA RESULT:    -6.206     20.850     22.575
 INTER + INTRA:          -6.698
 INTER:                  -7.013
 INTRA:                   0.315
 UNBOUND:                -0.128
  1 active torsions:
  status: ('A' for Active; 'I' for Inactive)
    1  A    between atoms: C11_14  and  C15_18 

>  <TORSDO>
F 1

$$$$
./Suberogorgina.pdbqt
 OpenBabel10282519553D

 18 20  0  0  1  0  0  0  0  0999 V2000
  -41.9390   29.3420    2.1930 O   0  0  0  0  0  0  0  0  0  0  0  0
  -42.3420   31.7160    2.4980 C   0  0  1  0  0  0  0  0  0  0  0  0
  -42.9670   32.7310    1.5040 C   0  0  1  0  0  3  0  0  0  0  0  0
  -40.9080   32.2860    2.8510 C   0  0  1  0  0  0  0  0  0  0  0  0
  -43.0580   31.5590    3.8790 C   0  0  1  0  0  3  0  0  0  0  0  0
  -42.0760   33.9810    1.5380 C   0  0  0  0  0  2  0  0  0  0  0  0
  -40.6720   33.4730    1.8920 C   0  0  0  0  0  2  0  0  0  0  0  0
  -42.9660   32.0530    0.1070 C   0  0  1  0  0  3  0  0  0  0  0  0
  -42.3250   30.3990    1.7660 C   0  0  0  0  0  0  0  0  0  0  0  0
  -42.9000   30.5410    0.3700 C   0  0  0  0  0  2  0  0  0  0  0  0
  -41.0610   32.7610    4.2760 C   0  0  0  0  0  2  0  0  0  0  0  0
  -42.2280   32.3980    4.8160 C   0  0  2  0  0  3  0  0  0  0  0  0
  -39.7920   31.2500    2.7510 C   0  0  0  0  0  1  0  0  0  0  0  0
  -44.5340   31.9320    3.9070 C   0  0  0  0  0  1  0  0  0  0  0  0
  -44.1970   32.4420   -0.7070 C   0  0  0  0  0  1  0  0  0  0  0  0
  -42.7090   32.7150    6.2320 C   0  0  0  0  0  0  0  0  0  0  0  0
  -42.2120   33.7230    6.7490 O   0  0  0  0  0  1  0  0  0  0  0  0
  -43.5460   31.9330    6.7010 O   0  0  0  0  0  0  0  0  0  0  0  0
  2  9  1  6  0  0  0
  2  4  1  0  0  0  0
  2  5  1  0  0  0  0
  3  6  1  6  0  0  0
  3  2  1  0  0  0  0
  4 13  1  6  0  0  0
  4 11  1  0  0  0  0
  5 14  1  6  0  0  0
  5 12  1  0  0  0  0
  6  7  1  0  0  0  0
  7  4  1  0  0  0  0
  8 15  1  1  0  0  0
  8 10  1  0  0  0  0
  8  3  1  0  0  0  0
  9  1  2  0  0  0  0
 10  9  1  0  0  0  0
 11 12  1  0  0  0  0
 12 16  1  1  0  0  0
 16 18  2  0  0  0  0
 16 17  1  0  0  0  0
M  END
>  <MODEL>
11

>  <REMARK>
 VINA RESULT:    -6.108      2.124      2.975
 INTER + INTRA:          -6.593
 INTER:                  -6.820
 INTRA:                   0.227
 UNBOUND:                -0.128
  1 active torsions:
  status: ('A' for Active; 'I' for Inactive)
    1  A    between atoms: C11_14  and  C15_18 

>  <TORSDO>
F 1

$$$$
./Suberogorgina.pdbqt
 OpenBabel10282519553D

 18 20  0  0  1  0  0  0  0  0999 V2000
  -34.2160   19.4310  -17.0730 O   0  0  0  0  0  0  0  0  0  0  0  0
  -34.1390   21.7260  -16.2890 C   0  0  1  0  0  0  0  0  0  0  0  0
  -33.2090   22.3560  -15.2180 C   0  0  1  0  0  3  0  0  0  0  0  0
  -35.6170   21.9880  -15.7860 C   0  0  1  0  0  0  0  0  0  0  0  0
  -34.0870   22.3590  -17.7180 C   0  0  1  0  0  3  0  0  0  0  0  0
  -34.1040   23.2200  -14.3170 C   0  0  0  0  0  2  0  0  0  0  0  0
  -35.4870   22.5540  -14.3550 C   0  0  0  0  0  2  0  0  0  0  0  0
  -32.5580   21.1820  -14.4380 C   0  0  1  0  0  3  0  0  0  0  0  0
  -33.7510   20.2710  -16.3490 C   0  0  0  0  0  0  0  0  0  0  0  0
  -32.6350   19.9620  -15.3690 C   0  0  0  0  0  2  0  0  0  0  0  0
  -36.1300   23.0390  -16.7400 C   0  0  0  0  0  2  0  0  0  0  0  0
  -35.2950   23.2590  -17.7600 C   0  0  2  0  0  3  0  0  0  0  0  0
  -36.5080   20.7510  -15.8230 C   0  0  0  0  0  1  0  0  0  0  0  0
  -32.7980   23.0860  -18.0760 C   0  0  0  0  0  1  0  0  0  0  0  0
  -31.1220   21.5050  -14.0320 C   0  0  0  0  0  1  0  0  0  0  0  0
  -35.5010   24.2570  -18.9010 C   0  0  0  0  0  0  0  0  0  0  0  0
  -35.5250   25.4470  -18.5690 O   0  0  0  0  0  1  0  0  0  0  0  0
  -35.6140   23.7620  -20.0300 O   0  0  0  0  0  0  0  0  0  0  0  0
  1  9  2  0  0  0  0
  2  9  1  6  0  0  0
  2  4  1  0  0  0  0
  2  3  1  0  0  0  0
  3  8  1  0  0  0  0
  3  6  1  1  0  0  0
  4 13  1  6  0  0  0
  4  7  1  0  0  0  0
  5 14  1  1  0  0  0
  5  2  1  0  0  0  0
  7  6  1  0  0  0  0
  8 15  1  6  0  0  0
  9 10  1  0  0  0  0
 10  8  1  0  0  0  0
 11  4  1  0  0  0  0
 12 16  1  6  0  0  0
 12  5  1  0  0  0  0
 12 11  1  0  0  0  0
 16 17  1  0  0  0  0
 18 16  2  0  0  0  0
M  END
>  <MODEL>
12

>  <REMARK>
 VINA RESULT:    -6.015     21.776     23.837
 INTER + INTRA:          -6.495
 INTER:                  -6.348
 INTRA:                  -0.147
 UNBOUND:                -0.128
  1 active torsions:
  status: ('A' for Active; 'I' for Inactive)
    1  A    between atoms: C11_14  and  C15_18 

>  <TORSDO>
F 1

$$$$
./Suberogorgina.pdbqt
 OpenBabel10282519553D

 18 20  0  0  1  0  0  0  0  0999 V2000
   -4.2620   34.5150   11.7960 O   0  0  0  0  0  0  0  0  0  0  0  0
   -5.2770   35.9900   10.1580 C   0  0  1  0  0  0  0  0  0  0  0  0
   -5.1510   35.9580    8.6120 C   0  0  1  0  0  3  0  0  0  0  0  0
   -4.7770   37.4250   10.6020 C   0  0  1  0  0  0  0  0  0  0  0  0
   -6.7220   35.8740   10.7440 C   0  0  1  0  0  3  0  0  0  0  0  0
   -4.9040   37.4060    8.1630 C   0  0  0  0  0  2  0  0  0  0  0  0
   -4.1800   38.0800    9.3370 C   0  0  0  0  0  2  0  0  0  0  0  0
   -3.9500   35.0320    8.2760 C   0  0  1  0  0  3  0  0  0  0  0  0
   -4.4200   34.8530   10.6530 C   0  0  0  0  0  0  0  0  0  0  0  0
   -3.7650   34.1200    9.4980 C   0  0  0  0  0  2  0  0  0  0  0  0
   -6.0470   38.1230   11.0250 C   0  0  0  0  0  2  0  0  0  0  0  0
   -7.0960   37.2960   11.0710 C   0  0  2  0  0  3  0  0  0  0  0  0
   -3.7730   37.4000   11.7500 C   0  0  0  0  0  1  0  0  0  0  0  0
   -7.7460   35.1860    9.8520 C   0  0  0  0  0  1  0  0  0  0  0  0
   -4.1960   34.2360    6.9960 C   0  0  0  0  0  1  0  0  0  0  0  0
   -8.5290   37.6710   11.4550 C   0  0  0  0  0  0  0  0  0  0  0  0
   -8.9720   37.1140   12.4650 O   0  0  0  0  0  1  0  0  0  0  0  0
   -9.0820   38.4950   10.7150 O   0  0  0  0  0  0  0  0  0  0  0  0
  2  4  1  0  0  0  0
  2  9  1  1  0  0  0
  2  5  1  0  0  0  0
  3  6  1  1  0  0  0
  3  2  1  0  0  0  0
  4 11  1  0  0  0  0
  4 13  1  1  0  0  0
  5 14  1  6  0  0  0
  5 12  1  0  0  0  0
  6  7  1  0  0  0  0
  7  4  1  0  0  0  0
  8 15  1  6  0  0  0
  8  3  1  0  0  0  0
  8 10  1  0  0  0  0
  9  1  2  0  0  0  0
 10  9  1  0  0  0  0
 11 12  1  0  0  0  0
 12 16  1  1  0  0  0
 16 17  1  0  0  0  0
 18 16  2  0  0  0  0
M  END
>  <MODEL>
13

>  <REMARK>
 VINA RESULT:    -5.908     34.567     37.064
 INTER + INTRA:          -6.382
 INTER:                  -6.240
 INTRA:                  -0.141
 UNBOUND:                -0.128
  1 active torsions:
  status: ('A' for Active; 'I' for Inactive)
    1  A    between atoms: C11_14  and  C15_18 

>  <TORSDO>
F 1

$$$$
./Suberogorgina.pdbqt
 OpenBabel10282519553D

 18 20  0  0  1  0  0  0  0  0999 V2000
   -5.3750   34.7630    8.2070 O   0  0  0  0  0  0  0  0  0  0  0  0
   -5.7600   36.5220    9.8330 C   0  0  1  0  0  0  0  0  0  0  0  0
   -5.1200   36.7060   11.2350 C   0  0  1  0  0  3  0  0  0  0  0  0
   -7.3230   36.4570   10.0770 C   0  0  1  0  0  0  0  0  0  0  0  0
   -5.5650   37.6950    8.8180 C   0  0  1  0  0  3  0  0  0  0  0  0
   -6.2670   37.0570   12.1960 C   0  0  0  0  0  2  0  0  0  0  0  0
   -7.5130   36.3820   11.6080 C   0  0  0  0  0  2  0  0  0  0  0  0
   -4.4450   35.3570   11.6040 C   0  0  1  0  0  3  0  0  0  0  0  0
   -5.1620   35.2520    9.2850 C   0  0  0  0  0  0  0  0  0  0  0  0
   -4.1910   34.6340   10.2720 C   0  0  0  0  0  2  0  0  0  0  0  0
   -7.8170   37.7750    9.5330 C   0  0  0  0  0  2  0  0  0  0  0  0
   -6.8660   38.4530    8.8840 C   0  0  2  0  0  3  0  0  0  0  0  0
   -8.0080   35.2940    9.3670 C   0  0  0  0  0  1  0  0  0  0  0  0
   -4.3530   38.5850    9.0560 C   0  0  0  0  0  1  0  0  0  0  0  0
   -3.1580   35.5720   12.3960 C   0  0  0  0  0  1  0  0  0  0  0  0
   -7.0220   39.8200    8.2170 C   0  0  0  0  0  0  0  0  0  0  0  0
   -6.8920   39.8290    6.9880 O   0  0  0  0  0  0  0  0  0  0  0  0
   -7.2680   40.7630    8.9800 O   0  0  0  0  0  1  0  0  0  0  0  0
  1  9  2  0  0  0  0
  2  9  1  6  0  0  0
  2  4  1  0  0  0  0
  2  3  1  0  0  0  0
  3  8  1  0  0  0  0
  3  6  1  1  0  0  0
  4 13  1  6  0  0  0
  4  7  1  0  0  0  0
  5 12  1  0  0  0  0
  5 14  1  1  0  0  0
  5  2  1  0  0  0  0
  7  6  1  0  0  0  0
  8 15  1  6  0  0  0
  9 10  1  0  0  0  0
 10  8  1  0  0  0  0
 11  4  1  0  0  0  0
 12 16  1  6  0  0  0
 12 11  1  0  0  0  0
 16 18  1  0  0  0  0
 17 16  2  0  0  0  0
M  END
>  <MODEL>
14

>  <REMARK>
 VINA RESULT:    -5.825     34.702     36.865
 INTER + INTRA:          -6.294
 INTER:                  -6.145
 INTRA:                  -0.149
 UNBOUND:                -0.128
  1 active torsions:
  status: ('A' for Active; 'I' for Inactive)
    1  A    between atoms: C11_14  and  C15_18 

>  <TORSDO>
F 1

$$$$
./Suberogorgina.pdbqt
 OpenBabel10282519553D

 18 20  0  0  1  0  0  0  0  0999 V2000
  -35.0870   23.8340  -13.8610 O   0  0  0  0  0  0  0  0  0  0  0  0
  -34.9310   22.4820  -15.8710 C   0  0  1  0  0  0  0  0  0  0  0  0
  -35.9230   21.4140  -16.4030 C   0  0  1  0  0  3  0  0  0  0  0  0
  -33.5450   21.7380  -15.7020 C   0  0  1  0  0  0  0  0  0  0  0  0
  -34.6240   23.6840  -16.8230 C   0  0  1  0  0  3  0  0  0  0  0  0
  -35.0760   20.2050  -16.8280 C   0  0  0  0  0  2  0  0  0  0  0  0
  -33.8350   20.2380  -15.9260 C   0  0  0  0  0  2  0  0  0  0  0  0
  -36.8840   21.0680  -15.2330 C   0  0  1  0  0  3  0  0  0  0  0  0
  -35.5320   22.9790  -14.5810 C   0  0  0  0  0  0  0  0  0  0  0  0
  -36.8400   22.2720  -14.2790 C   0  0  0  0  0  2  0  0  0  0  0  0
  -32.7060   22.3010  -16.8240 C   0  0  0  0  0  2  0  0  0  0  0  0
  -33.2990   23.3250  -17.4450 C   0  0  2  0  0  3  0  0  0  0  0  0
  -32.8720   21.9870  -14.3560 C   0  0  0  0  0  1  0  0  0  0  0  0
  -35.6940   24.0010  -17.8590 C   0  0  0  0  0  1  0  0  0  0  0  0
  -38.2980   20.7820  -15.7320 C   0  0  0  0  0  1  0  0  0  0  0  0
  -32.7350   24.1210  -18.6220 C   0  0  0  0  0  0  0  0  0  0  0  0
  -32.4360   25.2950  -18.3760 O   0  0  0  0  0  1  0  0  0  0  0  0
  -32.6330   23.4990  -19.6890 O   0  0  0  0  0  0  0  0  0  0  0  0
  2  4  1  0  0  0  0
  2  9  1  1  0  0  0
  3  6  1  1  0  0  0
  3  2  1  0  0  0  0
  3  8  1  0  0  0  0
  4 13  1  1  0  0  0
  5 14  1  6  0  0  0
  5  2  1  0  0  0  0
  6  7  1  0  0  0  0
  7  4  1  0  0  0  0
  8 15  1  6  0  0  0
  8 10  1  0  0  0  0
  9 10  1  0  0  0  0
  9  1  2  0  0  0  0
 11  4  1  0  0  0  0
 12 16  1  1  0  0  0
 12 11  1  0  0  0  0
 12  5  1  0  0  0  0
 16 17  1  0  0  0  0
 18 16  2  0  0  0  0
M  END
>  <MODEL>
15

>  <REMARK>
 VINA RESULT:    -5.824     21.466     23.325
 INTER + INTRA:          -6.293
 INTER:                  -6.138
 INTRA:                  -0.155
 UNBOUND:                -0.128
  1 active torsions:
  status: ('A' for Active; 'I' for Inactive)
    1  A    between atoms: C11_14  and  C15_18 

>  <TORSDO>
F 1

$$$$
./Suberogorgina.pdbqt
 OpenBabel10282519553D

 18 20  0  0  1  0  0  0  0  0999 V2000
   -4.4310   35.9270   12.4320 O   0  0  0  0  0  0  0  0  0  0  0  0
   -5.0810   36.4220   10.1460 C   0  0  1  0  0  0  0  0  0  0  0  0
   -5.0990   37.7910    9.4160 C   0  0  1  0  0  3  0  0  0  0  0  0
   -6.5610   35.8670   10.0610 C   0  0  1  0  0  0  0  0  0  0  0  0
   -4.1980   35.3010    9.5050 C   0  0  1  0  0  3  0  0  0  0  0  0
   -6.4380   37.8690    8.6670 C   0  0  0  0  0  2  0  0  0  0  0  0
   -7.4160   37.0190    9.4890 C   0  0  0  0  0  2  0  0  0  0  0  0
   -4.9810   38.8870   10.5100 C   0  0  1  0  0  3  0  0  0  0  0  0
   -4.6090   36.7210   11.5460 C   0  0  0  0  0  0  0  0  0  0  0  0
   -4.3390   38.2030   11.7270 C   0  0  0  0  0  2  0  0  0  0  0  0
   -6.4520   34.7310    9.0720 C   0  0  0  0  0  2  0  0  0  0  0  0
   -5.1860   34.4490    8.7520 C   0  0  2  0  0  3  0  0  0  0  0  0
   -7.1080   35.3660   11.3930 C   0  0  0  0  0  1  0  0  0  0  0  0
   -3.0470   35.7810    8.6320 C   0  0  0  0  0  1  0  0  0  0  0  0
   -4.1620   40.0810   10.0230 C   0  0  0  0  0  1  0  0  0  0  0  0
   -4.7170   33.3640    7.7800 C   0  0  0  0  0  0  0  0  0  0  0  0
   -4.5930   33.7220    6.6040 O   0  0  0  0  0  0  0  0  0  0  0  0
   -4.5080   32.2510    8.2810 O   0  0  0  0  0  1  0  0  0  0  0  0
  2  9  1  1  0  0  0
  3  6  1  1  0  0  0
  3  2  1  0  0  0  0
  3  8  1  0  0  0  0
  4  2  1  0  0  0  0
  4 13  1  1  0  0  0
  5 14  1  6  0  0  0
  5  2  1  0  0  0  0
  6  7  1  0  0  0  0
  7  4  1  0  0  0  0
  8 15  1  6  0  0  0
  8 10  1  0  0  0  0
  9 10  1  0  0  0  0
  9  1  2  0  0  0  0
 11  4  1  0  0  0  0
 12 16  1  1  0  0  0
 12 11  1  0  0  0  0
 12  5  1  0  0  0  0
 16 18  1  0  0  0  0
 17 16  2  0  0  0  0
M  END
>  <MODEL>
16

>  <REMARK>
 VINA RESULT:    -5.805     35.592     37.442
 INTER + INTRA:          -6.273
 INTER:                  -6.225
 INTRA:                  -0.048
 UNBOUND:                -0.128
  1 active torsions:
  status: ('A' for Active; 'I' for Inactive)
    1  A    between atoms: C11_14  and  C15_18 

>  <TORSDO>
F 1

$$$$
./Suberogorgina.pdbqt
 OpenBabel10282519553D

 18 20  0  0  1  0  0  0  0  0999 V2000
  -36.2170   20.2040  -15.9360 O   0  0  0  0  0  0  0  0  0  0  0  0
  -35.1410   22.3760  -16.0500 C   0  0  1  0  0  0  0  0  0  0  0  0
  -34.9860   23.3200  -17.2720 C   0  0  1  0  0  3  0  0  0  0  0  0
  -33.6700   22.0800  -15.5440 C   0  0  1  0  0  0  0  0  0  0  0  0
  -35.8800   22.9630  -14.8030 C   0  0  1  0  0  3  0  0  0  0  0  0
  -33.5280   23.8040  -17.2680 C   0  0  0  0  0  2  0  0  0  0  0  0
  -32.7240   22.6740  -16.6100 C   0  0  0  0  0  2  0  0  0  0  0  0
  -35.3160   22.4810  -18.5360 C   0  0  1  0  0  3  0  0  0  0  0  0
  -35.8750   21.1670  -16.5700 C   0  0  0  0  0  0  0  0  0  0  0  0
  -36.1790   21.3060  -18.0500 C   0  0  0  0  0  2  0  0  0  0  0  0
  -33.5830   22.8530  -14.2510 C   0  0  0  0  0  2  0  0  0  0  0  0
  -34.7630   23.3530  -13.8700 C   0  0  2  0  0  3  0  0  0  0  0  0
  -33.3880   20.6010  -15.3030 C   0  0  0  0  0  1  0  0  0  0  0  0
  -36.8420   24.1100  -15.0810 C   0  0  0  0  0  1  0  0  0  0  0  0
  -36.0300   23.3180  -19.5950 C   0  0  0  0  0  1  0  0  0  0  0  0
  -35.0320   24.1870  -12.6170 C   0  0  0  0  0  0  0  0  0  0  0  0
  -35.8520   23.7080  -11.8250 O   0  0  0  0  0  1  0  0  0  0  0  0
  -34.3930   25.2440  -12.5300 O   0  0  0  0  0  0  0  0  0  0  0  0
  2  9  1  6  0  0  0
  2  4  1  0  0  0  0
  2  5  1  0  0  0  0
  3  6  1  6  0  0  0
  3  2  1  0  0  0  0
  4 13  1  1  0  0  0
  4 11  1  0  0  0  0
  5 14  1  6  0  0  0
  5 12  1  0  0  0  0
  6  7  1  0  0  0  0
  7  4  1  0  0  0  0
  8 15  1  6  0  0  0
  8 10  1  0  0  0  0
  8  3  1  0  0  0  0
  9  1  2  0  0  0  0
 10  9  1  0  0  0  0
 11 12  1  0  0  0  0
 12 16  1  1  0  0  0
 16 18  2  0  0  0  0
 16 17  1  0  0  0  0
M  END
>  <MODEL>
17

>  <REMARK>
 VINA RESULT:    -5.770     20.541     22.355
 INTER + INTRA:          -6.236
 INTER:                  -6.109
 INTRA:                  -0.127
 UNBOUND:                -0.128
  1 active torsions:
  status: ('A' for Active; 'I' for Inactive)
    1  A    between atoms: C11_14  and  C15_18 

>  <TORSDO>
F 1

$$$$
./Suberogorgina.pdbqt
 OpenBabel10282519553D

 18 20  0  0  1  0  0  0  0  0999 V2000
  -22.6270   -2.9350   12.0160 O   0  0  0  0  0  0  0  0  0  0  0  0
  -21.2870   -1.3800   13.3100 C   0  0  1  0  0  0  0  0  0  0  0  0
  -20.0080   -1.6590   14.1430 C   0  0  1  0  0  3  0  0  0  0  0  0
  -22.3320   -0.7540   14.3220 C   0  0  1  0  0  0  0  0  0  0  0  0
  -21.1590   -0.3210   12.1660 C   0  0  1  0  0  3  0  0  0  0  0  0
  -20.1910   -0.9320   15.4830 C   0  0  0  0  0  2  0  0  0  0  0  0
  -21.7070   -0.8990   15.7260 C   0  0  0  0  0  2  0  0  0  0  0  0
  -19.9140   -3.1980   14.3250 C   0  0  1  0  0  3  0  0  0  0  0  0
  -21.6940   -2.7150   12.7430 C   0  0  0  0  0  0  0  0  0  0  0  0
  -20.7400   -3.8100   13.1820 C   0  0  0  0  0  2  0  0  0  0  0  0
  -22.3980    0.6950   13.9040 C   0  0  0  0  0  2  0  0  0  0  0  0
  -21.7430    0.9320   12.7640 C   0  0  2  0  0  3  0  0  0  0  0  0
  -23.7150   -1.3940   14.2520 C   0  0  0  0  0  1  0  0  0  0  0  0
  -19.7570   -0.1110   11.6110 C   0  0  0  0  0  1  0  0  0  0  0  0
  -18.4650   -3.6790   14.3070 C   0  0  0  0  0  1  0  0  0  0  0  0
  -21.6050    2.2840   12.0630 C   0  0  0  0  0  0  0  0  0  0  0  0
  -22.1950    2.3850   10.9820 O   0  0  0  0  0  0  0  0  0  0  0  0
  -20.9230    3.1290   12.6580 O   0  0  0  0  0  1  0  0  0  0  0  0
  1  9  2  0  0  0  0
  2  9  1  6  0  0  0
  2  3  1  0  0  0  0
  2  4  1  0  0  0  0
  3  8  1  0  0  0  0
  3  6  1  1  0  0  0
  4 13  1  6  0  0  0
  4  7  1  0  0  0  0
  5 14  1  1  0  0  0
  5 12  1  0  0  0  0
  5  2  1  0  0  0  0
  6  7  1  0  0  0  0
  8 15  1  6  0  0  0
  9 10  1  0  0  0  0
 10  8  1  0  0  0  0
 11  4  1  0  0  0  0
 12 16  1  6  0  0  0
 12 11  1  0  0  0  0
 16 18  1  0  0  0  0
 17 16  2  0  0  0  0
M  END
>  <MODEL>
18

>  <REMARK>
 VINA RESULT:    -5.683     37.519     39.656
 INTER + INTRA:          -6.143
 INTER:                  -5.988
 INTRA:                  -0.156
 UNBOUND:                -0.128
  1 active torsions:
  status: ('A' for Active; 'I' for Inactive)
    1  A    between atoms: C11_14  and  C15_18 

>  <TORSDO>
F 1

$$$$
./Suberogorgina.pdbqt
 OpenBabel10282519553D

 18 20  0  0  1  0  0  0  0  0999 V2000
  -43.5040   28.5790    2.1210 O   0  0  0  0  0  0  0  0  0  0  0  0
  -43.1870   30.9140    2.6990 C   0  0  1  0  0  0  0  0  0  0  0  0
  -44.1800   31.8880    3.3880 C   0  0  1  0  0  3  0  0  0  0  0  0
  -42.8160   31.5850    1.3140 C   0  0  1  0  0  0  0  0  0  0  0  0
  -41.8140   30.6950    3.4150 C   0  0  1  0  0  3  0  0  0  0  0  0
  -44.1290   33.2000    2.5910 C   0  0  0  0  0  2  0  0  0  0  0  0
  -43.7640   32.7930    1.1570 C   0  0  0  0  0  2  0  0  0  0  0  0
  -45.5820   31.2230    3.3240 C   0  0  1  0  0  3  0  0  0  0  0  0
  -43.9270   29.6070    2.5780 C   0  0  0  0  0  0  0  0  0  0  0  0
  -45.3280   29.7170    3.1500 C   0  0  0  0  0  2  0  0  0  0  0  0
  -41.3900   32.0370    1.5150 C   0  0  0  0  0  2  0  0  0  0  0  0
  -40.8640   31.5850    2.6570 C   0  0  2  0  0  3  0  0  0  0  0  0
  -42.9120   30.6350    0.1250 C   0  0  0  0  0  1  0  0  0  0  0  0
  -41.7980   30.9580    4.9150 C   0  0  0  0  0  1  0  0  0  0  0  0
  -46.4050   31.5260    4.5730 C   0  0  0  0  0  1  0  0  0  0  0  0
  -39.4500   31.8560    3.1730 C   0  0  0  0  0  0  0  0  0  0  0  0
  -39.1290   33.0470    3.2470 O   0  0  0  0  0  0  0  0  0  0  0  0
  -38.7860   30.8530    3.4660 O   0  0  0  0  0  1  0  0  0  0  0  0
  1  9  2  0  0  0  0
  2  9  1  6  0  0  0
  2  3  1  0  0  0  0
  2  5  1  0  0  0  0
  3  6  1  6  0  0  0
  4 13  1  6  0  0  0
  4 11  1  0  0  0  0
  4  2  1  0  0  0  0
  5 14  1  1  0  0  0
  7  4  1  0  0  0  0
  7  6  1  0  0  0  0
  8  3  1  0  0  0  0
  8 15  1  1  0  0  0
  9 10  1  0  0  0  0
 10  8  1  0  0  0  0
 11 12  1  0  0  0  0
 12 16  1  6  0  0  0
 12  5  1  0  0  0  0
 16 17  2  0  0  0  0
 16 18  1  0  0  0  0
M  END
>  <MODEL>
19

>  <REMARK>
 VINA RESULT:    -5.665      1.714      2.704
 INTER + INTRA:          -6.125
 INTER:                  -6.034
 INTRA:                  -0.091
 UNBOUND:                -0.128
  1 active torsions:
  status: ('A' for Active; 'I' for Inactive)
    1  A    between atoms: C11_14  and  C15_18 

>  <TORSDO>
F 1

$$$$
./Suberogorgina.pdbqt
 OpenBabel10282519553D

 18 20  0  0  1  0  0  0  0  0999 V2000
  -39.7270   31.6840    5.9900 O   0  0  0  0  0  0  0  0  0  0  0  0
  -41.3670   31.5850    4.2040 C   0  0  1  0  0  0  0  0  0  0  0  0
  -41.3250   32.2620    2.8080 C   0  0  1  0  0  3  0  0  0  0  0  0
  -42.6910   32.1060    4.8970 C   0  0  1  0  0  0  0  0  0  0  0  0
  -41.4960   30.0270    4.2210 C   0  0  1  0  0  3  0  0  0  0  0  0
  -42.7120   32.8810    2.5810 C   0  0  0  0  0  2  0  0  0  0  0  0
  -43.2430   33.2200    3.9810 C   0  0  0  0  0  2  0  0  0  0  0  0
  -40.2090   33.3410    2.8630 C   0  0  1  0  0  3  0  0  0  0  0  0
  -40.0960   32.0110    4.8930 C   0  0  0  0  0  0  0  0  0  0  0  0
  -39.2690   32.9200    4.0030 C   0  0  0  0  0  2  0  0  0  0  0  0
  -43.5930   30.8960    4.8820 C   0  0  0  0  0  2  0  0  0  0  0  0
  -42.9590   29.7870    4.4900 C   0  0  2  0  0  3  0  0  0  0  0  0
  -42.4850   32.6020    6.3250 C   0  0  0  0  0  1  0  0  0  0  0  0
  -41.0010   29.3070    2.9740 C   0  0  0  0  0  1  0  0  0  0  0  0
  -39.4770   33.4600    1.5290 C   0  0  0  0  0  1  0  0  0  0  0  0
  -43.5710   28.3920    4.3570 C   0  0  0  0  0  0  0  0  0  0  0  0
  -44.3410   28.2380    3.4030 O   0  0  0  0  0  0  0  0  0  0  0  0
  -43.2220   27.5710    5.2160 O   0  0  0  0  0  1  0  0  0  0  0  0
  2  5  1  0  0  0  0
  2  9  1  1  0  0  0
  2  4  1  0  0  0  0
  3  6  1  1  0  0  0
  3  8  1  0  0  0  0
  3  2  1  0  0  0  0
  4 13  1  1  0  0  0
  5 14  1  6  0  0  0
  5 12  1  0  0  0  0
  6  7  1  0  0  0  0
  7  4  1  0  0  0  0
  8 15  1  6  0  0  0
  8 10  1  0  0  0  0
  9  1  2  0  0  0  0
 10  9  1  0  0  0  0
 11  4  1  0  0  0  0
 12 16  1  1  0  0  0
 12 11  1  0  0  0  0
 16 18  1  0  0  0  0
 17 16  2  0  0  0  0
M  END
>  <MODEL>
20

>  <REMARK>
 VINA RESULT:    -5.585      1.597      4.360
 INTER + INTRA:          -6.039
 INTER:                  -5.886
 INTRA:                  -0.154
 UNBOUND:                -0.128
  1 active torsions:
  status: ('A' for Active; 'I' for Inactive)
    1  A    between atoms: C11_14  and  C15_18 

>  <TORSDO>
F 1

$$$$
