MODEL 1
REMARK VINA RESULT:    -8.272      0.000      0.000
REMARK INTER + INTRA:         -12.001
REMARK INTER:                 -11.173
REMARK INTRA:                  -0.828
REMARK UNBOUND:                -0.828
REMARK  6 active torsions:
REMARK  status: ('A' for Active; 'I' for Inactive)
REMARK    1  A    between atoms: O2_2  and  C16_20 
REMARK    2  A    between atoms: O3_3  and  C17_21 
REMARK    3  A    between atoms: N_4  and  C12_16 
REMARK    4  A    between atoms: C1_5  and  C2_6 
REMARK    5  A    between atoms: C2_6  and  C3_7 
REMARK    6  A    between atoms: C12_16  and  C15_19 
ROOT
HETATM    1  C2  HET A   1     -34.013  21.113 -17.491  1.00 -2.90     0.017 C 
ENDROOT
BRANCH   1   2
HETATM    2  C1  HET A   1     -34.280  19.850 -18.321  1.00 -0.95    -0.011 C 
HETATM    3  C5  HET A   1     -34.888  18.733 -17.457  1.00 -3.14     0.032 C 
HETATM    4  C7  HET A   1     -35.142  17.484 -18.295  1.00 -1.71     0.235 C 
HETATM    5  N   HET A   1     -33.835  16.987 -18.891  1.00 -1.14    -0.067 N 
HETATM    6  C6  HET A   1     -33.220  18.069 -19.765  1.00 -1.68     0.235 C 
HETATM    7  H   HET A   1     -33.176  16.767 -18.101  1.00  3.03     0.280 HD
HETATM    8  C4  HET A   1     -32.971  19.333 -18.942  1.00 -3.17     0.032 C 
BRANCH   5   9
HETATM    9  C12 HET A   1     -34.072  15.724 -19.709  1.00 -1.78     0.273 C 
BRANCH   9  10
HETATM   10  C15 HET A   1     -33.248  14.613 -19.132  1.00 -1.10    -0.033 A 
HETATM   11  C19 HET A   1     -31.992  14.321 -19.668  1.00 -1.37     0.009 A 
HETATM   12  C21 HET A   1     -31.233  13.286 -19.125  1.00 -1.27     0.001 A 
HETATM   13  C22 HET A   1     -31.731  12.548 -18.053  1.00 -1.00     0.000 A 
HETATM   14  C20 HET A   1     -32.982  12.849 -17.513  1.00 -1.23     0.001 A 
HETATM   15  C18 HET A   1     -33.742  13.885 -18.047  1.00 -1.59     0.009 A 
ENDBRANCH   9  10
ENDBRANCH   5   9
ENDBRANCH   1   2
BRANCH   1  16
HETATM   16  C3  HET A   1     -34.117  20.853 -15.989  1.00 -2.25     0.065 A 
HETATM   17  C8  HET A   1     -34.753  22.022 -15.193  1.00 -2.93     0.052 A 
HETATM   18  C10 HET A   1     -33.743  22.359 -14.134  1.00  0.68    -0.041 A 
HETATM   19  C13 HET A   1     -33.895  23.277 -13.101  1.00 -3.15     0.047 A 
HETATM   20  C11 HET A   1     -32.570  21.615 -14.276  1.00 -2.15     0.019 A 
HETATM   21  C16 HET A   1     -32.832  23.440 -12.213  1.00  2.20     0.102 A 
HETATM   22  C17 HET A   1     -31.624  22.691 -12.371  1.00  1.16     0.102 A 
HETATM   23  C14 HET A   1     -31.495  21.775 -13.403  1.00 -1.55     0.055 A 
HETATM   24  C9  HET A   1     -32.692  20.693 -15.407  1.00  4.84     0.164 A 
HETATM   25  O1  HET A   1     -31.887  19.923 -15.849  1.00 -4.36    -0.292 OA
BRANCH  21  26
HETATM   26  O2  HET A   1     -32.814  24.283 -11.158  1.00 -2.48    -0.353 OA
HETATM   27  C23 HET A   1     -33.058  25.661 -11.424  1.00 -2.19     0.210 C 
ENDBRANCH  21  26
BRANCH  22  28
HETATM   28  O3  HET A   1     -30.688  22.973 -11.428  1.00 -2.63    -0.353 OA
HETATM   29  C24 HET A   1     -29.535  23.683 -11.866  1.00 -2.14     0.210 C 
ENDBRANCH  22  28
ENDBRANCH   1  16
TORSDOF 6
ENDMDL
MODEL 2
REMARK VINA RESULT:    -8.248      4.317      6.991
REMARK INTER + INTRA:         -11.969
REMARK INTER:                 -10.799
REMARK INTRA:                  -1.170
REMARK UNBOUND:                -0.828
REMARK  6 active torsions:
REMARK  status: ('A' for Active; 'I' for Inactive)
REMARK    1  A    between atoms: O2_2  and  C16_20 
REMARK    2  A    between atoms: O3_3  and  C17_21 
REMARK    3  A    between atoms: N_4  and  C12_16 
REMARK    4  A    between atoms: C1_5  and  C2_6 
REMARK    5  A    between atoms: C2_6  and  C3_7 
REMARK    6  A    between atoms: C12_16  and  C15_19 
ROOT
HETATM    1  C2  HET A   1     -34.409  21.107 -17.214  1.00 -2.90     0.017 C 
ENDROOT
BRANCH   1   2
HETATM    2  C1  HET A   1     -34.277  22.577 -17.636  1.00 -0.95    -0.011 C 
HETATM    3  C5  HET A   1     -35.090  22.867 -18.909  1.00 -3.14     0.032 C 
HETATM    4  C7  HET A   1     -34.944  24.329 -19.319  1.00 -1.71     0.235 C 
HETATM    5  N   HET A   1     -33.482  24.646 -19.588  1.00 -1.14    -0.067 N 
HETATM    6  C6  HET A   1     -32.657  24.383 -18.338  1.00 -1.68     0.235 C 
HETATM    7  H   HET A   1     -33.146  24.017 -20.361  1.00  3.03     0.280 HD
HETATM    8  C4  HET A   1     -32.802  22.924 -17.907  1.00 -3.17     0.032 C 
BRANCH   5   9
HETATM    9  C12 HET A   1     -33.326  26.097 -20.024  1.00 -1.78     0.273 C 
BRANCH   9  10
HETATM   10  C15 HET A   1     -32.195  26.190 -21.002  1.00 -1.10    -0.033 A 
HETATM   11  C19 HET A   1     -31.944  25.138 -21.884  1.00 -1.37     0.009 A 
HETATM   12  C21 HET A   1     -30.890  25.233 -22.791  1.00 -1.27     0.001 A 
HETATM   13  C22 HET A   1     -30.092  26.376 -22.811  1.00 -1.00     0.000 A 
HETATM   14  C20 HET A   1     -30.353  27.431 -21.936  1.00 -1.23     0.001 A 
HETATM   15  C18 HET A   1     -31.408  27.344 -21.032  1.00 -1.59     0.009 A 
ENDBRANCH   9  10
ENDBRANCH   5   9
ENDBRANCH   1   2
BRANCH   1  16
HETATM   16  C3  HET A   1     -34.455  20.941 -15.697  1.00 -2.25     0.065 A 
HETATM   17  C8  HET A   1     -34.981  22.191 -14.945  1.00 -2.93     0.052 A 
HETATM   18  C10 HET A   1     -33.902  22.524 -13.954  1.00  0.68    -0.041 A 
HETATM   19  C13 HET A   1     -33.947  23.508 -12.974  1.00 -3.15     0.047 A 
HETATM   20  C11 HET A   1     -32.784  21.701 -14.104  1.00 -2.15     0.019 A 
HETATM   21  C16 HET A   1     -32.835  23.655 -12.146  1.00  2.20     0.102 A 
HETATM   22  C17 HET A   1     -31.683  22.823 -12.312  1.00  1.16     0.102 A 
HETATM   23  C14 HET A   1     -31.660  21.843 -13.292  1.00 -1.55     0.055 A 
HETATM   24  C9  HET A   1     -33.016  20.725 -15.171  1.00  4.84     0.164 A 
HETATM   25  O1  HET A   1     -32.281  19.881 -15.601  1.00 -4.36    -0.292 OA
BRANCH  21  26
HETATM   26  O2  HET A   1     -32.715  24.555 -11.145  1.00 -2.48    -0.353 OA
HETATM   27  C23 HET A   1     -32.939  25.922 -11.473  1.00 -2.19     0.210 C 
ENDBRANCH  21  26
BRANCH  22  28
HETATM   28  O3  HET A   1     -30.687  23.100 -11.431  1.00 -2.63    -0.353 OA
HETATM   29  C24 HET A   1     -29.520  23.715 -11.962  1.00 -2.14     0.210 C 
ENDBRANCH  22  28
ENDBRANCH   1  16
TORSDOF 6
ENDMDL
MODEL 3
REMARK VINA RESULT:    -8.086      1.193      1.611
REMARK INTER + INTRA:         -11.750
REMARK INTER:                 -10.892
REMARK INTRA:                  -0.858
REMARK UNBOUND:                -0.828
REMARK  6 active torsions:
REMARK  status: ('A' for Active; 'I' for Inactive)
REMARK    1  A    between atoms: O2_2  and  C16_20 
REMARK    2  A    between atoms: O3_3  and  C17_21 
REMARK    3  A    between atoms: N_4  and  C12_16 
REMARK    4  A    between atoms: C1_5  and  C2_6 
REMARK    5  A    between atoms: C2_6  and  C3_7 
REMARK    6  A    between atoms: C12_16  and  C15_19 
ROOT
HETATM    1  C2  HET A   1     -34.037  20.080 -18.051  1.00 -2.90     0.017 C 
ENDROOT
BRANCH   1   2
HETATM    2  C1  HET A   1     -34.119  18.694 -18.704  1.00 -0.95    -0.011 C 
HETATM    3  C5  HET A   1     -34.375  17.598 -17.655  1.00 -3.14     0.032 C 
HETATM    4  C7  HET A   1     -34.449  16.226 -18.318  1.00 -1.71     0.235 C 
HETATM    5  N   HET A   1     -33.141  15.926 -19.032  1.00 -1.14    -0.067 N 
HETATM    6  C6  HET A   1     -32.872  16.988 -20.087  1.00 -1.68     0.235 C 
HETATM    7  H   HET A   1     -32.366  15.945 -18.320  1.00  3.03     0.280 HD
HETATM    8  C4  HET A   1     -32.807  18.371 -19.440  1.00 -3.17     0.032 C 
BRANCH   5   9
HETATM    9  C12 HET A   1     -33.193  14.547 -19.676  1.00 -1.78     0.273 C 
BRANCH   9  10
HETATM   10  C15 HET A   1     -32.243  13.640 -18.955  1.00 -1.10    -0.033 A 
HETATM   11  C19 HET A   1     -30.924  13.516 -19.391  1.00 -1.37     0.009 A 
HETATM   12  C21 HET A   1     -30.048  12.670 -18.713  1.00 -1.27     0.001 A 
HETATM   13  C22 HET A   1     -30.494  11.952 -17.606  1.00 -1.00     0.000 A 
HETATM   14  C20 HET A   1     -31.811  12.086 -17.164  1.00 -1.23     0.001 A 
HETATM   15  C18 HET A   1     -32.689  12.934 -17.834  1.00 -1.59     0.009 A 
ENDBRANCH   9  10
ENDBRANCH   5   9
ENDBRANCH   1   2
BRANCH   1  16
HETATM   16  C3  HET A   1     -34.340  20.036 -16.554  1.00 -2.25     0.065 A 
HETATM   17  C8  HET A   1     -35.446  21.028 -16.109  1.00 -2.93     0.052 A 
HETATM   18  C10 HET A   1     -34.811  21.847 -15.022  1.00  0.68    -0.041 A 
HETATM   19  C13 HET A   1     -35.433  22.808 -14.233  1.00 -3.15     0.047 A 
HETATM   20  C11 HET A   1     -33.462  21.533 -14.853  1.00 -2.15     0.019 A 
HETATM   21  C16 HET A   1     -34.662  23.457 -13.269  1.00  2.20     0.102 A 
HETATM   22  C17 HET A   1     -33.275  23.148 -13.109  1.00  1.16     0.102 A 
HETATM   23  C14 HET A   1     -32.675  22.182 -13.901  1.00 -1.55     0.055 A 
HETATM   24  C9  HET A   1     -33.074  20.461 -15.773  1.00  4.84     0.164 A 
HETATM   25  O1  HET A   1     -32.002  19.951 -15.936  1.00 -4.36    -0.292 OA
BRANCH  21  26
HETATM   26  O2  HET A   1     -35.108  24.410 -12.420  1.00 -2.48    -0.353 OA
HETATM   27  C23 HET A   1     -36.021  23.999 -11.408  1.00 -2.19     0.210 C 
ENDBRANCH  21  26
BRANCH  22  28
HETATM   28  O3  HET A   1     -32.671  23.873 -12.132  1.00 -2.63    -0.353 OA
HETATM   29  C24 HET A   1     -31.369  23.453 -11.740  1.00 -2.14     0.210 C 
ENDBRANCH  22  28
ENDBRANCH   1  16
TORSDOF 6
ENDMDL
MODEL 4
REMARK VINA RESULT:    -7.979      3.358      9.300
REMARK INTER + INTRA:         -11.606
REMARK INTER:                 -10.683
REMARK INTRA:                  -0.922
REMARK UNBOUND:                -0.828
REMARK  6 active torsions:
REMARK  status: ('A' for Active; 'I' for Inactive)
REMARK    1  A    between atoms: O2_2  and  C16_20 
REMARK    2  A    between atoms: O3_3  and  C17_21 
REMARK    3  A    between atoms: N_4  and  C12_16 
REMARK    4  A    between atoms: C1_5  and  C2_6 
REMARK    5  A    between atoms: C2_6  and  C3_7 
REMARK    6  A    between atoms: C12_16  and  C15_19 
ROOT
HETATM    1  C2  HET A   1     -32.470  20.765 -18.690  1.00 -2.90     0.017 C 
ENDROOT
BRANCH   1   2
HETATM    2  C1  HET A   1     -33.215  21.173 -17.412  1.00 -0.95    -0.011 C 
HETATM    3  C5  HET A   1     -33.258  22.703 -17.255  1.00 -3.14     0.032 C 
HETATM    4  C7  HET A   1     -33.995  23.092 -15.979  1.00 -1.71     0.235 C 
HETATM    5  N   HET A   1     -33.290  22.495 -14.772  1.00 -1.14    -0.067 N 
HETATM    6  C6  HET A   1     -33.249  20.980 -14.894  1.00 -1.68     0.235 C 
HETATM    7  H   HET A   1     -32.305  22.865 -14.750  1.00  3.03     0.280 HD
HETATM    8  C4  HET A   1     -32.523  20.573 -16.176  1.00 -3.17     0.032 C 
BRANCH   5   9
HETATM    9  C12 HET A   1     -34.003  22.900 -13.488  1.00 -1.78     0.273 C 
BRANCH   9  10
HETATM   10  C15 HET A   1     -33.043  23.651 -12.617  1.00 -1.10    -0.033 A 
HETATM   11  C19 HET A   1     -33.416  24.870 -12.050  1.00 -1.37     0.009 A 
HETATM   12  C21 HET A   1     -32.515  25.561 -11.242  1.00 -1.27     0.001 A 
HETATM   13  C22 HET A   1     -31.248  25.033 -11.006  1.00 -1.00     0.000 A 
HETATM   14  C20 HET A   1     -30.881  23.808 -11.565  1.00 -1.23     0.001 A 
HETATM   15  C18 HET A   1     -31.778  23.111 -12.368  1.00 -1.59     0.009 A 
ENDBRANCH   9  10
ENDBRANCH   5   9
ENDBRANCH   1   2
BRANCH   1  16
HETATM   16  C3  HET A   1     -33.267  19.773 -19.535  1.00 -2.25     0.065 A 
HETATM   17  C8  HET A   1     -34.517  19.201 -18.817  1.00 -2.93     0.052 A 
HETATM   18  C10 HET A   1     -34.347  17.710 -18.881  1.00  0.68    -0.041 A 
HETATM   19  C13 HET A   1     -35.261  16.750 -18.461  1.00 -3.15     0.047 A 
HETATM   20  C11 HET A   1     -33.122  17.348 -19.443  1.00 -2.15     0.019 A 
HETATM   21  C16 HET A   1     -34.911  15.409 -18.612  1.00  2.20     0.102 A 
HETATM   22  C17 HET A   1     -33.648  15.039 -19.172  1.00  1.16     0.102 A 
HETATM   23  C14 HET A   1     -32.753  16.012 -19.590  1.00 -1.55     0.055 A 
HETATM   24  C9  HET A   1     -32.376  18.545 -19.840  1.00  4.84     0.164 A 
HETATM   25  O1  HET A   1     -31.284  18.632 -20.326  1.00 -4.36    -0.292 OA
BRANCH  21  26
HETATM   26  O2  HET A   1     -35.680  14.354 -18.263  1.00 -2.48    -0.353 OA
HETATM   27  C23 HET A   1     -35.897  14.144 -16.871  1.00 -2.19     0.210 C 
ENDBRANCH  21  26
BRANCH  22  28
HETATM   28  O3  HET A   1     -33.463  13.695 -19.243  1.00 -2.63    -0.353 OA
HETATM   29  C24 HET A   1     -32.473  13.143 -18.383  1.00 -2.14     0.210 C 
ENDBRANCH  22  28
ENDBRANCH   1  16
TORSDOF 6
ENDMDL
MODEL 5
REMARK VINA RESULT:    -7.916      4.211      7.110
REMARK INTER + INTRA:         -11.521
REMARK INTER:                 -10.457
REMARK INTRA:                  -1.063
REMARK UNBOUND:                -0.828
REMARK  6 active torsions:
REMARK  status: ('A' for Active; 'I' for Inactive)
REMARK    1  A    between atoms: O2_2  and  C16_20 
REMARK    2  A    between atoms: O3_3  and  C17_21 
REMARK    3  A    between atoms: N_4  and  C12_16 
REMARK    4  A    between atoms: C1_5  and  C2_6 
REMARK    5  A    between atoms: C2_6  and  C3_7 
REMARK    6  A    between atoms: C12_16  and  C15_19 
ROOT
HETATM    1  C2  HET A   1     -32.438  20.580 -17.204  1.00 -2.90     0.017 C 
ENDROOT
BRANCH   1   2
HETATM    2  C1  HET A   1     -33.050  21.791 -17.921  1.00 -0.95    -0.011 C 
HETATM    3  C5  HET A   1     -33.111  21.567 -19.441  1.00 -3.14     0.032 C 
HETATM    4  C7  HET A   1     -33.715  22.781 -20.139  1.00 -1.71     0.235 C 
HETATM    5  N   HET A   1     -32.870  24.013 -19.858  1.00 -1.14    -0.067 N 
HETATM    6  C6  HET A   1     -32.807  24.266 -18.360  1.00 -1.68     0.235 C 
HETATM    7  H   HET A   1     -31.897  23.833 -20.218  1.00  3.03     0.280 HD
HETATM    8  C4  HET A   1     -32.214  23.053 -17.644  1.00 -3.17     0.032 C 
BRANCH   5   9
HETATM    9  C12 HET A   1     -33.449  25.227 -20.572  1.00 -1.78     0.273 C 
BRANCH   9  10
HETATM   10  C15 HET A   1     -32.339  25.952 -21.271  1.00 -1.10    -0.033 A 
HETATM   11  C19 HET A   1     -31.505  25.270 -22.157  1.00 -1.37     0.009 A 
HETATM   12  C21 HET A   1     -30.475  25.953 -22.802  1.00 -1.27     0.001 A 
HETATM   13  C22 HET A   1     -30.283  27.311 -22.558  1.00 -1.00     0.000 A 
HETATM   14  C20 HET A   1     -31.126  27.994 -21.680  1.00 -1.23     0.001 A 
HETATM   15  C18 HET A   1     -32.159  27.318 -21.037  1.00 -1.59     0.009 A 
ENDBRANCH   9  10
ENDBRANCH   5   9
ENDBRANCH   1   2
BRANCH   1  16
HETATM   16  C3  HET A   1     -32.948  20.434 -15.771  1.00 -2.25     0.065 A 
HETATM   17  C8  HET A   1     -34.234  21.250 -15.478  1.00 -2.93     0.052 A 
HETATM   18  C10 HET A   1     -33.885  22.102 -14.291  1.00  0.68    -0.041 A 
HETATM   19  C13 HET A   1     -34.743  22.937 -13.585  1.00 -3.15     0.047 A 
HETATM   20  C11 HET A   1     -32.545  21.965 -13.927  1.00 -2.15     0.019 A 
HETATM   21  C16 HET A   1     -34.219  23.644 -12.504  1.00  2.20     0.102 A 
HETATM   22  C17 HET A   1     -32.841  23.517 -12.142  1.00  1.16     0.102 A 
HETATM   23  C14 HET A   1     -32.004  22.674 -12.855  1.00 -1.55     0.055 A 
HETATM   24  C9  HET A   1     -31.882  20.993 -14.800  1.00  4.84     0.164 A 
HETATM   25  O1  HET A   1     -30.737  20.638 -14.810  1.00 -4.36    -0.292 OA
BRANCH  21  26
HETATM   26  O2  HET A   1     -34.912  24.493 -11.712  1.00 -2.48    -0.353 OA
HETATM   27  C23 HET A   1     -36.203  24.071 -11.283  1.00 -2.19     0.210 C 
ENDBRANCH  21  26
BRANCH  22  28
HETATM   28  O3  HET A   1     -32.493  24.277 -11.072  1.00 -2.63    -0.353 OA
HETATM   29  C24 HET A   1     -31.378  25.144 -11.242  1.00 -2.14     0.210 C 
ENDBRANCH  22  28
ENDBRANCH   1  16
TORSDOF 6
ENDMDL
MODEL 6
REMARK VINA RESULT:    -7.849     15.804     22.156
REMARK INTER + INTRA:         -11.430
REMARK INTER:                 -10.538
REMARK INTRA:                  -0.892
REMARK UNBOUND:                -0.828
REMARK  6 active torsions:
REMARK  status: ('A' for Active; 'I' for Inactive)
REMARK    1  A    between atoms: O2_2  and  C16_20 
REMARK    2  A    between atoms: O3_3  and  C17_21 
REMARK    3  A    between atoms: N_4  and  C12_16 
REMARK    4  A    between atoms: C1_5  and  C2_6 
REMARK    5  A    between atoms: C2_6  and  C3_7 
REMARK    6  A    between atoms: C12_16  and  C15_19 
ROOT
HETATM    1  C2  HET A   1     -45.404  28.754  -1.425  1.00 -2.90     0.017 C 
ENDROOT
BRANCH   1   2
HETATM    2  C1  HET A   1     -45.203  30.075  -0.670  1.00 -0.95    -0.011 C 
HETATM    3  C5  HET A   1     -44.248  31.012  -1.429  1.00 -3.14     0.032 C 
HETATM    4  C7  HET A   1     -44.054  32.317  -0.663  1.00 -1.71     0.235 C 
HETATM    5  N   HET A   1     -43.470  32.029   0.710  1.00 -1.14    -0.067 N 
HETATM    6  C6  HET A   1     -44.404  31.116   1.489  1.00 -1.68     0.235 C 
HETATM    7  H   HET A   1     -42.545  31.543   0.579  1.00  3.03     0.280 HD
HETATM    8  C4  HET A   1     -44.619  29.807   0.728  1.00 -3.17     0.032 C 
BRANCH   5   9
HETATM    9  C12 HET A   1     -43.247  33.327   1.474  1.00 -1.78     0.273 C 
BRANCH   9  10
HETATM   10  C15 HET A   1     -41.889  33.289   2.107  1.00 -1.10    -0.033 A 
HETATM   11  C19 HET A   1     -40.750  33.532   1.339  1.00 -1.37     0.009 A 
HETATM   12  C21 HET A   1     -39.492  33.494   1.937  1.00 -1.27     0.001 A 
HETATM   13  C22 HET A   1     -39.378  33.211   3.297  1.00 -1.00     0.000 A 
HETATM   14  C20 HET A   1     -40.519  32.979   4.065  1.00 -1.23     0.001 A 
HETATM   15  C18 HET A   1     -41.779  33.021   3.475  1.00 -1.59     0.009 A 
ENDBRANCH   9  10
ENDBRANCH   5   9
ENDBRANCH   1   2
BRANCH   1  16
HETATM   16  C3  HET A   1     -44.199  28.392  -2.292  1.00 -2.25     0.065 A 
HETATM   17  C8  HET A   1     -44.559  28.094  -3.771  1.00 -2.93     0.052 A 
HETATM   18  C10 HET A   1     -43.998  26.726  -4.033  1.00  0.68    -0.041 A 
HETATM   19  C13 HET A   1     -43.974  26.055  -5.250  1.00 -3.15     0.047 A 
HETATM   20  C11 HET A   1     -43.457  26.154  -2.880  1.00 -2.15     0.019 A 
HETATM   21  C16 HET A   1     -43.399  24.785  -5.283  1.00  2.20     0.102 A 
HETATM   22  C17 HET A   1     -42.862  24.192  -4.097  1.00  1.16     0.102 A 
HETATM   23  C14 HET A   1     -42.890  24.880  -2.894  1.00 -1.55     0.055 A 
HETATM   24  C9  HET A   1     -43.569  27.085  -1.755  1.00  4.84     0.164 A 
HETATM   25  O1  HET A   1     -43.243  26.937  -0.611  1.00 -4.36    -0.292 OA
BRANCH  21  26
HETATM   26  O2  HET A   1     -43.291  24.001  -6.379  1.00 -2.48    -0.353 OA
HETATM   27  C23 HET A   1     -43.421  24.637  -7.646  1.00 -2.19     0.210 C 
ENDBRANCH  21  26
BRANCH  22  28
HETATM   28  O3  HET A   1     -42.347  22.952  -4.301  1.00 -2.63    -0.353 OA
HETATM   29  C24 HET A   1     -41.180  22.618  -3.558  1.00 -2.14     0.210 C 
ENDBRANCH  22  28
ENDBRANCH   1  16
TORSDOF 6
ENDMDL
MODEL 7
REMARK VINA RESULT:    -7.788      5.186      7.165
REMARK INTER + INTRA:         -11.348
REMARK INTER:                 -10.633
REMARK INTRA:                  -0.715
REMARK UNBOUND:                -0.828
REMARK  6 active torsions:
REMARK  status: ('A' for Active; 'I' for Inactive)
REMARK    1  A    between atoms: O2_2  and  C16_20 
REMARK    2  A    between atoms: O3_3  and  C17_21 
REMARK    3  A    between atoms: N_4  and  C12_16 
REMARK    4  A    between atoms: C1_5  and  C2_6 
REMARK    5  A    between atoms: C2_6  and  C3_7 
REMARK    6  A    between atoms: C12_16  and  C15_19 
ROOT
HETATM    1  C2  HET A   1     -36.905  22.619 -13.839  1.00 -2.90     0.017 C 
ENDROOT
BRANCH   1   2
HETATM    2  C1  HET A   1     -37.705  22.143 -15.060  1.00 -0.95    -0.011 C 
HETATM    3  C5  HET A   1     -39.169  22.610 -14.984  1.00 -3.14     0.032 C 
HETATM    4  C7  HET A   1     -39.952  22.124 -16.199  1.00 -1.71     0.235 C 
HETATM    5  N   HET A   1     -39.924  20.606 -16.259  1.00 -1.14    -0.067 N 
HETATM    6  C6  HET A   1     -38.487  20.118 -16.351  1.00 -1.68     0.235 C 
HETATM    7  H   HET A   1     -40.357  20.234 -15.375  1.00  3.03     0.280 HD
HETATM    8  C4  HET A   1     -37.685  20.607 -15.145  1.00 -3.17     0.032 C 
BRANCH   5   9
HETATM    9  C12 HET A   1     -40.725  20.108 -17.454  1.00 -1.78     0.273 C 
BRANCH   9  10
HETATM   10  C15 HET A   1     -42.006  19.506 -16.962  1.00 -1.10    -0.033 A 
HETATM   11  C19 HET A   1     -42.198  19.288 -15.597  1.00 -1.37     0.009 A 
HETATM   12  C21 HET A   1     -43.393  18.727 -15.148  1.00 -1.27     0.001 A 
HETATM   13  C22 HET A   1     -44.387  18.386 -16.063  1.00 -1.00     0.000 A 
HETATM   14  C20 HET A   1     -44.196  18.615 -17.427  1.00 -1.23     0.001 A 
HETATM   15  C18 HET A   1     -43.008  19.180 -17.880  1.00 -1.59     0.009 A 
ENDBRANCH   9  10
ENDBRANCH   5   9
ENDBRANCH   1   2
BRANCH   1  16
HETATM   16  C3  HET A   1     -35.558  23.225 -14.229  1.00 -2.25     0.065 A 
HETATM   17  C8  HET A   1     -34.512  22.178 -14.695  1.00 -2.93     0.052 A 
HETATM   18  C10 HET A   1     -33.321  22.407 -13.809  1.00  0.68    -0.041 A 
HETATM   19  C13 HET A   1     -32.083  21.782 -13.902  1.00 -3.15     0.047 A 
HETATM   20  C11 HET A   1     -33.575  23.369 -12.830  1.00 -2.15     0.019 A 
HETATM   21  C16 HET A   1     -31.101  22.141 -12.979  1.00  2.20     0.102 A 
HETATM   22  C17 HET A   1     -31.369  23.113 -11.965  1.00  1.16     0.102 A 
HETATM   23  C14 HET A   1     -32.608  23.729 -11.893  1.00 -1.55     0.055 A 
HETATM   24  C9  HET A   1     -34.932  23.899 -12.985  1.00  4.84     0.164 A 
HETATM   25  O1  HET A   1     -35.510  24.711 -12.319  1.00 -4.36    -0.292 OA
BRANCH  21  26
HETATM   26  O2  HET A   1     -29.848  21.636 -12.931  1.00 -2.48    -0.353 OA
HETATM   27  C23 HET A   1     -29.488  20.698 -13.940  1.00 -2.19     0.210 C 
ENDBRANCH  21  26
BRANCH  22  28
HETATM   28  O3  HET A   1     -30.310  23.342 -11.145  1.00 -2.63    -0.353 OA
HETATM   29  C24 HET A   1     -30.601  23.906  -9.872  1.00 -2.14     0.210 C 
ENDBRANCH  22  28
ENDBRANCH   1  16
TORSDOF 6
ENDMDL
MODEL 8
REMARK VINA RESULT:    -7.729      1.204      2.309
REMARK INTER + INTRA:         -11.269
REMARK INTER:                 -10.922
REMARK INTRA:                  -0.347
REMARK UNBOUND:                -0.828
REMARK  6 active torsions:
REMARK  status: ('A' for Active; 'I' for Inactive)
REMARK    1  A    between atoms: O2_2  and  C16_20 
REMARK    2  A    between atoms: O3_3  and  C17_21 
REMARK    3  A    between atoms: N_4  and  C12_16 
REMARK    4  A    between atoms: C1_5  and  C2_6 
REMARK    5  A    between atoms: C2_6  and  C3_7 
REMARK    6  A    between atoms: C12_16  and  C15_19 
ROOT
HETATM    1  C2  HET A   1     -35.364  20.315 -16.432  1.00 -2.90     0.017 C 
ENDROOT
BRANCH   1   2
HETATM    2  C1  HET A   1     -35.022  19.371 -17.592  1.00 -0.95    -0.011 C 
HETATM    3  C5  HET A   1     -36.224  18.485 -17.963  1.00 -3.14     0.032 C 
HETATM    4  C7  HET A   1     -35.866  17.548 -19.113  1.00 -1.71     0.235 C 
HETATM    5  N   HET A   1     -34.704  16.655 -18.710  1.00 -1.14    -0.067 N 
HETATM    6  C6  HET A   1     -33.496  17.507 -18.353  1.00 -1.68     0.235 C 
HETATM    7  H   HET A   1     -34.995  16.099 -17.864  1.00  3.03     0.280 HD
HETATM    8  C4  HET A   1     -33.842  18.461 -17.210  1.00 -3.17     0.032 C 
BRANCH   5   9
HETATM    9  C12 HET A   1     -34.356  15.696 -19.840  1.00 -1.78     0.273 C 
BRANCH   9  10
HETATM   10  C15 HET A   1     -33.436  14.638 -19.311  1.00 -1.10    -0.033 A 
HETATM   11  C19 HET A   1     -33.814  13.868 -18.211  1.00 -1.37     0.009 A 
HETATM   12  C21 HET A   1     -32.952  12.886 -17.726  1.00 -1.27     0.001 A 
HETATM   13  C22 HET A   1     -31.719  12.680 -18.340  1.00 -1.00     0.000 A 
HETATM   14  C20 HET A   1     -31.348  13.443 -19.448  1.00 -1.23     0.001 A 
HETATM   15  C18 HET A   1     -32.207  14.421 -19.940  1.00 -1.59     0.009 A 
ENDBRANCH   9  10
ENDBRANCH   5   9
ENDBRANCH   1   2
BRANCH   1  16
HETATM   16  C3  HET A   1     -34.308  21.402 -16.237  1.00 -2.25     0.065 A 
HETATM   17  C8  HET A   1     -33.022  20.905 -15.528  1.00 -2.93     0.052 A 
HETATM   18  C10 HET A   1     -32.857  21.821 -14.349  1.00  0.68    -0.041 A 
HETATM   19  C13 HET A   1     -31.791  21.846 -13.457  1.00 -3.15     0.047 A 
HETATM   20  C11 HET A   1     -33.927  22.708 -14.224  1.00 -2.15     0.019 A 
HETATM   21  C16 HET A   1     -31.827  22.783 -12.425  1.00  2.20     0.102 A 
HETATM   22  C17 HET A   1     -32.933  23.679 -12.287  1.00  1.16     0.102 A 
HETATM   23  C14 HET A   1     -33.984  23.642 -13.190  1.00 -1.55     0.055 A 
HETATM   24  C9  HET A   1     -34.884  22.501 -15.313  1.00  4.84     0.164 A 
HETATM   25  O1  HET A   1     -35.929  23.051 -15.522  1.00 -4.36    -0.292 OA
BRANCH  21  26
HETATM   26  O2  HET A   1     -30.876  22.944 -11.479  1.00 -2.48    -0.353 OA
HETATM   27  C23 HET A   1     -29.601  23.405 -11.914  1.00 -2.19     0.210 C 
ENDBRANCH  21  26
BRANCH  22  28
HETATM   28  O3  HET A   1     -32.815  24.521 -11.228  1.00 -2.63    -0.353 OA
HETATM   29  C24 HET A   1     -32.780  25.913 -11.521  1.00 -2.14     0.210 C 
ENDBRANCH  22  28
ENDBRANCH   1  16
TORSDOF 6
ENDMDL
MODEL 9
REMARK VINA RESULT:    -7.674      2.012      4.035
REMARK INTER + INTRA:         -11.194
REMARK INTER:                 -10.952
REMARK INTRA:                  -0.241
REMARK UNBOUND:                -0.828
REMARK  6 active torsions:
REMARK  status: ('A' for Active; 'I' for Inactive)
REMARK    1  A    between atoms: O2_2  and  C16_20 
REMARK    2  A    between atoms: O3_3  and  C17_21 
REMARK    3  A    between atoms: N_4  and  C12_16 
REMARK    4  A    between atoms: C1_5  and  C2_6 
REMARK    5  A    between atoms: C2_6  and  C3_7 
REMARK    6  A    between atoms: C12_16  and  C15_19 
ROOT
HETATM    1  C2  HET A   1     -35.508  17.196 -18.007  1.00 -2.90     0.017 C 
ENDROOT
BRANCH   1   2
HETATM    2  C1  HET A   1     -34.535  16.029 -18.224  1.00 -0.95    -0.011 C 
HETATM    3  C5  HET A   1     -34.644  15.471 -19.654  1.00 -3.14     0.032 C 
HETATM    4  C7  HET A   1     -33.676  14.309 -19.852  1.00 -1.71     0.235 C 
HETATM    5  N   HET A   1     -33.995  13.197 -18.867  1.00 -1.14    -0.067 N 
HETATM    6  C6  HET A   1     -33.879  13.718 -17.443  1.00 -1.68     0.235 C 
HETATM    7  H   HET A   1     -34.984  12.880 -19.037  1.00  3.03     0.280 HD
HETATM    8  C4  HET A   1     -34.835  14.892 -17.231  1.00 -3.17     0.032 C 
BRANCH   5   9
HETATM    9  C12 HET A   1     -33.052  12.019 -19.073  1.00 -1.78     0.273 C 
BRANCH   9  10
HETATM   10  C15 HET A   1     -31.704  12.376 -18.524  1.00 -1.10    -0.033 A 
HETATM   11  C19 HET A   1     -31.330  11.948 -17.250  1.00 -1.37     0.009 A 
HETATM   12  C21 HET A   1     -30.075  12.286 -16.748  1.00 -1.27     0.001 A 
HETATM   13  C22 HET A   1     -29.201  13.050 -17.520  1.00 -1.00     0.000 A 
HETATM   14  C20 HET A   1     -29.573  13.467 -18.798  1.00 -1.23     0.001 A 
HETATM   15  C18 HET A   1     -30.824  13.128 -19.306  1.00 -1.59     0.009 A 
ENDBRANCH   9  10
ENDBRANCH   5   9
ENDBRANCH   1   2
BRANCH   1  16
HETATM   16  C3  HET A   1     -34.805  18.552 -18.042  1.00 -2.25     0.065 A 
HETATM   17  C8  HET A   1     -33.466  18.583 -17.261  1.00 -2.93     0.052 A 
HETATM   18  C10 HET A   1     -33.616  19.718 -16.288  1.00  0.68    -0.041 A 
HETATM   19  C13 HET A   1     -32.641  20.213 -15.430  1.00 -3.15     0.047 A 
HETATM   20  C11 HET A   1     -34.895  20.276 -16.331  1.00 -2.15     0.019 A 
HETATM   21  C16 HET A   1     -32.984  21.283 -14.603  1.00  2.20     0.102 A 
HETATM   22  C17 HET A   1     -34.300  21.841 -14.635  1.00  1.16     0.102 A 
HETATM   23  C14 HET A   1     -35.256  21.337 -15.502  1.00 -1.55     0.055 A 
HETATM   24  C9  HET A   1     -35.705  19.602 -17.348  1.00  4.84     0.164 A 
HETATM   25  O1  HET A   1     -36.851  19.785 -17.651  1.00 -4.36    -0.292 OA
BRANCH  21  26
HETATM   26  O2  HET A   1     -32.159  21.884 -13.717  1.00 -2.48    -0.353 OA
HETATM   27  C23 HET A   1     -30.876  21.298 -13.524  1.00 -2.19     0.210 C 
ENDBRANCH  21  26
BRANCH  22  28
HETATM   28  O3  HET A   1     -34.469  22.871 -13.764  1.00 -2.63    -0.353 OA
HETATM   29  C24 HET A   1     -35.698  23.582 -13.852  1.00 -2.14     0.210 C 
ENDBRANCH  22  28
ENDBRANCH   1  16
TORSDOF 6
ENDMDL
MODEL 10
REMARK VINA RESULT:    -7.595      5.805      9.209
REMARK INTER + INTRA:         -11.088
REMARK INTER:                 -10.255
REMARK INTRA:                  -0.833
REMARK UNBOUND:                -0.828
REMARK  6 active torsions:
REMARK  status: ('A' for Active; 'I' for Inactive)
REMARK    1  A    between atoms: O2_2  and  C16_20 
REMARK    2  A    between atoms: O3_3  and  C17_21 
REMARK    3  A    between atoms: N_4  and  C12_16 
REMARK    4  A    between atoms: C1_5  and  C2_6 
REMARK    5  A    between atoms: C2_6  and  C3_7 
REMARK    6  A    between atoms: C12_16  and  C15_19 
ROOT
HETATM    1  C2  HET A   1     -36.479  23.759 -14.984  1.00 -2.90     0.017 C 
ENDROOT
BRANCH   1   2
HETATM    2  C1  HET A   1     -37.927  23.278 -15.156  1.00 -0.95    -0.011 C 
HETATM    3  C5  HET A   1     -38.866  24.447 -15.497  1.00 -3.14     0.032 C 
HETATM    4  C7  HET A   1     -40.300  23.955 -15.659  1.00 -1.71     0.235 C 
HETATM    5  N   HET A   1     -40.773  23.308 -14.368  1.00 -1.14    -0.067 N 
HETATM    6  C6  HET A   1     -39.870  22.136 -14.016  1.00 -1.68     0.235 C 
HETATM    7  H   HET A   1     -40.719  24.026 -13.600  1.00  3.03     0.280 HD
HETATM    8  C4  HET A   1     -38.425  22.611 -13.862  1.00 -3.17     0.032 C 
BRANCH   5   9
HETATM    9  C12 HET A   1     -42.214  22.836 -14.508  1.00 -1.78     0.273 C 
BRANCH   9  10
HETATM   10  C15 HET A   1     -43.060  23.556 -13.502  1.00 -1.10    -0.033 A 
HETATM   11  C19 HET A   1     -43.991  24.507 -13.922  1.00 -1.37     0.009 A 
HETATM   12  C21 HET A   1     -44.772  25.172 -12.978  1.00 -1.27     0.001 A 
HETATM   13  C22 HET A   1     -44.619  24.886 -11.623  1.00 -1.00     0.000 A 
HETATM   14  C20 HET A   1     -43.695  23.926 -11.207  1.00 -1.23     0.001 A 
HETATM   15  C18 HET A   1     -42.915  23.255 -12.145  1.00 -1.59     0.009 A 
ENDBRANCH   9  10
ENDBRANCH   5   9
ENDBRANCH   1   2
BRANCH   1  16
HETATM   16  C3  HET A   1     -35.793  23.115 -13.781  1.00 -2.25     0.065 A 
HETATM   17  C8  HET A   1     -35.133  24.134 -12.816  1.00 -2.93     0.052 A 
HETATM   18  C10 HET A   1     -33.702  23.688 -12.708  1.00  0.68    -0.041 A 
HETATM   19  C13 HET A   1     -32.724  24.223 -11.877  1.00 -3.15     0.047 A 
HETATM   20  C11 HET A   1     -33.424  22.617 -13.558  1.00 -2.15     0.019 A 
HETATM   21  C16 HET A   1     -31.450  23.659 -11.925  1.00  2.20     0.102 A 
HETATM   22  C17 HET A   1     -31.161  22.573 -12.810  1.00  1.16     0.102 A 
HETATM   23  C14 HET A   1     -32.152  22.050 -13.626  1.00 -1.55     0.055 A 
HETATM   24  C9  HET A   1     -34.634  22.221 -14.283  1.00  4.84     0.164 A 
HETATM   25  O1  HET A   1     -34.777  21.367 -15.112  1.00 -4.36    -0.292 OA
BRANCH  21  26
HETATM   26  O2  HET A   1     -30.390  24.053 -11.185  1.00 -2.48    -0.353 OA
HETATM   27  C23 HET A   1     -30.498  23.912  -9.772  1.00 -2.19     0.210 C 
ENDBRANCH  21  26
BRANCH  22  28
HETATM   28  O3  HET A   1     -29.874  22.147 -12.738  1.00 -2.63    -0.353 OA
HETATM   29  C24 HET A   1     -29.464  21.189 -13.707  1.00 -2.14     0.210 C 
ENDBRANCH  22  28
ENDBRANCH   1  16
TORSDOF 6
ENDMDL
MODEL 11
REMARK VINA RESULT:    -7.493     16.846     22.434
REMARK INTER + INTRA:         -10.949
REMARK INTER:                 -10.431
REMARK INTRA:                  -0.518
REMARK UNBOUND:                -0.828
REMARK  6 active torsions:
REMARK  status: ('A' for Active; 'I' for Inactive)
REMARK    1  A    between atoms: O2_2  and  C16_20 
REMARK    2  A    between atoms: O3_3  and  C17_21 
REMARK    3  A    between atoms: N_4  and  C12_16 
REMARK    4  A    between atoms: C1_5  and  C2_6 
REMARK    5  A    between atoms: C2_6  and  C3_7 
REMARK    6  A    between atoms: C12_16  and  C15_19 
ROOT
HETATM    1  C2  HET A   1     -43.725  29.229  -3.015  1.00 -2.90     0.017 C 
ENDROOT
BRANCH   1   2
HETATM    2  C1  HET A   1     -44.142  30.153  -1.862  1.00 -0.95    -0.011 C 
HETATM    3  C5  HET A   1     -44.016  31.633  -2.261  1.00 -3.14     0.032 C 
HETATM    4  C7  HET A   1     -44.427  32.538  -1.104  1.00 -1.71     0.235 C 
HETATM    5  N   HET A   1     -43.537  32.276   0.099  1.00 -1.14    -0.067 N 
HETATM    6  C6  HET A   1     -43.656  30.821   0.524  1.00 -1.68     0.235 C 
HETATM    7  H   HET A   1     -42.541  32.472  -0.179  1.00  3.03     0.280 HD
HETATM    8  C4  HET A   1     -43.258  29.900  -0.629  1.00 -3.17     0.032 C 
BRANCH   5   9
HETATM    9  C12 HET A   1     -43.921  33.193   1.253  1.00 -1.78     0.273 C 
BRANCH   9  10
HETATM   10  C15 HET A   1     -42.772  33.273   2.211  1.00 -1.10    -0.033 A 
HETATM   11  C19 HET A   1     -42.977  33.044   3.572  1.00 -1.37     0.009 A 
HETATM   12  C21 HET A   1     -41.902  33.120   4.456  1.00 -1.27     0.001 A 
HETATM   13  C22 HET A   1     -40.630  33.426   3.977  1.00 -1.00     0.000 A 
HETATM   14  C20 HET A   1     -40.425  33.643   2.614  1.00 -1.23     0.001 A 
HETATM   15  C18 HET A   1     -41.494  33.562   1.726  1.00 -1.59     0.009 A 
ENDBRANCH   9  10
ENDBRANCH   5   9
ENDBRANCH   1   2
BRANCH   1  16
HETATM   16  C3  HET A   1     -44.475  27.898  -2.992  1.00 -2.25     0.065 A 
HETATM   17  C8  HET A   1     -44.647  27.300  -1.572  1.00 -2.93     0.052 A 
HETATM   18  C10 HET A   1     -44.063  25.919  -1.664  1.00  0.68    -0.041 A 
HETATM   19  C13 HET A   1     -44.071  24.944  -0.674  1.00 -3.15     0.047 A 
HETATM   20  C11 HET A   1     -43.486  25.679  -2.913  1.00 -2.15     0.019 A 
HETATM   21  C16 HET A   1     -43.476  23.717  -0.963  1.00  2.20     0.102 A 
HETATM   22  C17 HET A   1     -42.869  23.478  -2.236  1.00  1.16     0.102 A 
HETATM   23  C14 HET A   1     -42.876  24.462  -3.213  1.00 -1.55     0.055 A 
HETATM   24  C9  HET A   1     -43.656  26.847  -3.779  1.00  4.84     0.164 A 
HETATM   25  O1  HET A   1     -43.273  27.023  -4.902  1.00 -4.36    -0.292 OA
BRANCH  21  26
HETATM   26  O2  HET A   1     -43.400  22.664  -0.120  1.00 -2.48    -0.353 OA
HETATM   27  C23 HET A   1     -43.701  22.908   1.250  1.00 -2.19     0.210 C 
ENDBRANCH  21  26
BRANCH  22  28
HETATM   28  O3  HET A   1     -42.330  22.237  -2.352  1.00 -2.63    -0.353 OA
HETATM   29  C24 HET A   1     -41.041  22.155  -2.948  1.00 -2.14     0.210 C 
ENDBRANCH  22  28
ENDBRANCH   1  16
TORSDOF 6
ENDMDL
MODEL 12
REMARK VINA RESULT:    -7.447      6.729     10.888
REMARK INTER + INTRA:         -10.887
REMARK INTER:                 -10.293
REMARK INTRA:                  -0.594
REMARK UNBOUND:                -0.828
REMARK  6 active torsions:
REMARK  status: ('A' for Active; 'I' for Inactive)
REMARK    1  A    between atoms: O2_2  and  C16_20 
REMARK    2  A    between atoms: O3_3  and  C17_21 
REMARK    3  A    between atoms: N_4  and  C12_16 
REMARK    4  A    between atoms: C1_5  and  C2_6 
REMARK    5  A    between atoms: C2_6  and  C3_7 
REMARK    6  A    between atoms: C12_16  and  C15_19 
ROOT
HETATM    1  C2  HET A   1     -38.293  21.115 -14.821  1.00 -2.90     0.017 C 
ENDROOT
BRANCH   1   2
HETATM    2  C1  HET A   1     -37.551  22.381 -14.369  1.00 -0.95    -0.011 C 
HETATM    3  C5  HET A   1     -36.107  22.401 -14.900  1.00 -3.14     0.032 C 
HETATM    4  C7  HET A   1     -35.382  23.660 -14.438  1.00 -1.71     0.235 C 
HETATM    5  N   HET A   1     -35.347  23.710 -12.919  1.00 -1.14    -0.067 N 
HETATM    6  C6  HET A   1     -36.765  23.708 -12.369  1.00 -1.68     0.235 C 
HETATM    7  H   HET A   1     -34.843  22.852 -12.574  1.00  3.03     0.280 HD
HETATM    8  C4  HET A   1     -37.510  22.456 -12.833  1.00 -3.17     0.032 C 
BRANCH   5   9
HETATM    9  C12 HET A   1     -34.602  24.950 -12.446  1.00 -1.78     0.273 C 
BRANCH   9  10
HETATM   10  C15 HET A   1     -33.187  24.573 -12.129  1.00 -1.10    -0.033 A 
HETATM   11  C19 HET A   1     -32.724  23.288 -12.411  1.00 -1.37     0.009 A 
HETATM   12  C21 HET A   1     -31.406  22.946 -12.113  1.00 -1.27     0.001 A 
HETATM   13  C22 HET A   1     -30.559  23.889 -11.534  1.00 -1.00     0.000 A 
HETATM   14  C20 HET A   1     -31.021  25.178 -11.264  1.00 -1.23     0.001 A 
HETATM   15  C18 HET A   1     -32.334  25.526 -11.565  1.00 -1.59     0.009 A 
ENDBRANCH   9  10
ENDBRANCH   5   9
ENDBRANCH   1   2
BRANCH   1  16
HETATM   16  C3  HET A   1     -39.727  21.407 -15.257  1.00 -2.25     0.065 A 
HETATM   17  C8  HET A   1     -40.803  20.732 -14.367  1.00 -2.93     0.052 A 
HETATM   18  C10 HET A   1     -41.648  19.940 -15.323  1.00  0.68    -0.041 A 
HETATM   19  C13 HET A   1     -42.809  19.236 -15.021  1.00 -3.15     0.047 A 
HETATM   20  C11 HET A   1     -41.145  19.983 -16.624  1.00 -2.15     0.019 A 
HETATM   21  C16 HET A   1     -43.452  18.565 -16.060  1.00  2.20     0.102 A 
HETATM   22  C17 HET A   1     -42.925  18.595 -17.390  1.00  1.16     0.102 A 
HETATM   23  C14 HET A   1     -41.770  19.307 -17.671  1.00 -1.55     0.055 A 
HETATM   24  C9  HET A   1     -39.949  20.827 -16.674  1.00  4.84     0.164 A 
HETATM   25  O1  HET A   1     -39.234  21.077 -17.603  1.00 -4.36    -0.292 OA
BRANCH  21  26
HETATM   26  O2  HET A   1     -44.586  17.840 -15.942  1.00 -2.48    -0.353 OA
HETATM   27  C23 HET A   1     -45.097  17.646 -14.627  1.00 -2.19     0.210 C 
ENDBRANCH  21  26
BRANCH  22  28
HETATM   28  O3  HET A   1     -43.667  17.886 -18.279  1.00 -2.63    -0.353 OA
HETATM   29  C24 HET A   1     -43.014  17.487 -19.479  1.00 -2.14     0.210 C 
ENDBRANCH  22  28
ENDBRANCH   1  16
TORSDOF 6
ENDMDL
MODEL 13
REMARK VINA RESULT:    -7.382     18.050     23.555
REMARK INTER + INTRA:         -10.800
REMARK INTER:                  -9.810
REMARK INTRA:                  -0.990
REMARK UNBOUND:                -0.828
REMARK  6 active torsions:
REMARK  status: ('A' for Active; 'I' for Inactive)
REMARK    1  A    between atoms: O2_2  and  C16_20 
REMARK    2  A    between atoms: O3_3  and  C17_21 
REMARK    3  A    between atoms: N_4  and  C12_16 
REMARK    4  A    between atoms: C1_5  and  C2_6 
REMARK    5  A    between atoms: C2_6  and  C3_7 
REMARK    6  A    between atoms: C12_16  and  C15_19 
ROOT
HETATM    1  C2  HET A   1     -44.042  31.806  -1.350  1.00 -2.90     0.017 C 
ENDROOT
BRANCH   1   2
HETATM    2  C1  HET A   1     -43.942  31.828   0.182  1.00 -0.95    -0.011 C 
HETATM    3  C5  HET A   1     -43.946  33.268   0.721  1.00 -3.14     0.032 C 
HETATM    4  C7  HET A   1     -43.840  33.273   2.243  1.00 -1.71     0.235 C 
HETATM    5  N   HET A   1     -42.551  32.591   2.673  1.00 -1.14    -0.067 N 
HETATM    6  C6  HET A   1     -42.530  31.158   2.166  1.00 -1.68     0.235 C 
HETATM    7  H   HET A   1     -41.744  33.118   2.251  1.00  3.03     0.280 HD
HETATM    8  C4  HET A   1     -42.647  31.135   0.642  1.00 -3.17     0.032 C 
BRANCH   5   9
HETATM    9  C12 HET A   1     -42.422  32.614   4.191  1.00 -1.78     0.273 C 
BRANCH   9  10
HETATM   10  C15 HET A   1     -41.028  32.208   4.563  1.00 -1.10    -0.033 A 
HETATM   11  C19 HET A   1     -40.818  31.258   5.563  1.00 -1.37     0.009 A 
HETATM   12  C21 HET A   1     -39.518  30.887   5.903  1.00 -1.27     0.001 A 
HETATM   13  C22 HET A   1     -38.436  31.467   5.243  1.00 -1.00     0.000 A 
HETATM   14  C20 HET A   1     -38.649  32.408   4.235  1.00 -1.23     0.001 A 
HETATM   15  C18 HET A   1     -39.945  32.778   3.888  1.00 -1.59     0.009 A 
ENDBRANCH   9  10
ENDBRANCH   5   9
ENDBRANCH   1   2
BRANCH   1  16
HETATM   16  C3  HET A   1     -44.812  30.592  -1.864  1.00 -2.25     0.065 A 
HETATM   17  C8  HET A   1     -45.408  29.705  -0.740  1.00 -2.93     0.052 A 
HETATM   18  C10 HET A   1     -44.872  28.329  -1.013  1.00  0.68    -0.041 A 
HETATM   19  C13 HET A   1     -45.200  27.159  -0.338  1.00 -3.15     0.047 A 
HETATM   20  C11 HET A   1     -43.968  28.323  -2.076  1.00 -2.15     0.019 A 
HETATM   21  C16 HET A   1     -44.590  25.975  -0.752  1.00  2.20     0.102 A 
HETATM   22  C17 HET A   1     -43.650  25.973  -1.830  1.00  1.16     0.102 A 
HETATM   23  C14 HET A   1     -43.340  27.150  -2.494  1.00 -1.55     0.055 A 
HETATM   24  C9  HET A   1     -43.839  29.670  -2.636  1.00  4.84     0.164 A 
HETATM   25  O1  HET A   1     -43.142  30.057  -3.532  1.00 -4.36    -0.292 OA
BRANCH  21  26
HETATM   26  O2  HET A   1     -44.798  24.755  -0.211  1.00 -2.48    -0.353 OA
HETATM   27  C23 HET A   1     -45.011  24.698   1.196  1.00 -2.19     0.210 C 
ENDBRANCH  21  26
BRANCH  22  28
HETATM   28  O3  HET A   1     -43.144  24.742  -2.102  1.00 -2.63    -0.353 OA
HETATM   29  C24 HET A   1     -43.062  24.376  -3.474  1.00 -2.14     0.210 C 
ENDBRANCH  22  28
ENDBRANCH   1  16
TORSDOF 6
ENDMDL
MODEL 14
REMARK VINA RESULT:    -7.299     38.745     40.161
REMARK INTER + INTRA:         -10.687
REMARK INTER:                  -9.957
REMARK INTRA:                  -0.730
REMARK UNBOUND:                -0.828
REMARK  6 active torsions:
REMARK  status: ('A' for Active; 'I' for Inactive)
REMARK    1  A    between atoms: O2_2  and  C16_20 
REMARK    2  A    between atoms: O3_3  and  C17_21 
REMARK    3  A    between atoms: N_4  and  C12_16 
REMARK    4  A    between atoms: C1_5  and  C2_6 
REMARK    5  A    between atoms: C2_6  and  C3_7 
REMARK    6  A    between atoms: C12_16  and  C15_19 
ROOT
HETATM    1  C2  HET A   1      -4.655  33.545   7.583  1.00 -2.90     0.017 C 
ENDROOT
BRANCH   1   2
HETATM    2  C1  HET A   1      -3.439  32.615   7.701  1.00 -0.95    -0.011 C 
HETATM    3  C5  HET A   1      -2.381  32.944   6.634  1.00 -3.14     0.032 C 
HETATM    4  C7  HET A   1      -1.183  32.008   6.759  1.00 -1.71     0.235 C 
HETATM    5  N   HET A   1      -1.631  30.567   6.579  1.00 -1.14    -0.067 N 
HETATM    6  C6  HET A   1      -2.667  30.212   7.634  1.00 -1.68     0.235 C 
HETATM    7  H   HET A   1      -2.066  30.475   5.625  1.00  3.03     0.280 HD
HETATM    8  C4  HET A   1      -3.870  31.148   7.529  1.00 -3.17     0.032 C 
BRANCH   5   9
HETATM    9  C12 HET A   1      -0.438  29.625   6.676  1.00 -1.78     0.273 C 
BRANCH   9  10
HETATM   10  C15 HET A   1      -0.327  28.851   5.398  1.00 -1.10    -0.033 A 
HETATM   11  C19 HET A   1       0.781  29.023   4.568  1.00 -1.37     0.009 A 
HETATM   12  C21 HET A   1       0.875  28.299   3.381  1.00 -1.27     0.001 A 
HETATM   13  C22 HET A   1      -0.138  27.410   3.028  1.00 -1.00     0.000 A 
HETATM   14  C20 HET A   1      -1.240  27.232   3.864  1.00 -1.23     0.001 A 
HETATM   15  C18 HET A   1      -1.337  27.948   5.054  1.00 -1.59     0.009 A 
ENDBRANCH   9  10
ENDBRANCH   5   9
ENDBRANCH   1   2
BRANCH   1  16
HETATM   16  C3  HET A   1      -4.805  34.460   8.797  1.00 -2.25     0.065 A 
HETATM   17  C8  HET A   1      -6.251  34.527   9.356  1.00 -2.93     0.052 A 
HETATM   18  C10 HET A   1      -6.591  35.990   9.363  1.00  0.68    -0.041 A 
HETATM   19  C13 HET A   1      -7.745  36.573   9.873  1.00 -3.15     0.047 A 
HETATM   20  C11 HET A   1      -5.581  36.763   8.789  1.00 -2.15     0.019 A 
HETATM   21  C16 HET A   1      -7.867  37.959   9.786  1.00  2.20     0.102 A 
HETATM   22  C17 HET A   1      -6.840  38.749   9.181  1.00  1.16     0.102 A 
HETATM   23  C14 HET A   1      -5.694  38.149   8.683  1.00 -1.55     0.055 A 
HETATM   24  C9  HET A   1      -4.464  35.910   8.379  1.00  4.84     0.164 A 
HETATM   25  O1  HET A   1      -3.441  36.209   7.830  1.00 -4.36    -0.292 OA
BRANCH  21  26
HETATM   26  O2  HET A   1      -8.917  38.684  10.233  1.00 -2.48    -0.353 OA
HETATM   27  C23 HET A   1      -9.237  38.575  11.616  1.00 -2.19     0.210 C 
ENDBRANCH  21  26
BRANCH  22  28
HETATM   28  O3  HET A   1      -7.118  40.079   9.170  1.00 -2.63    -0.353 OA
HETATM   29  C24 HET A   1      -7.248  40.692   7.893  1.00 -2.14     0.210 C 
ENDBRANCH  22  28
ENDBRANCH   1  16
TORSDOF 6
ENDMDL
MODEL 15
REMARK VINA RESULT:    -7.295      4.664      6.363
REMARK INTER + INTRA:         -10.683
REMARK INTER:                  -9.929
REMARK INTRA:                  -0.753
REMARK UNBOUND:                -0.828
REMARK  6 active torsions:
REMARK  status: ('A' for Active; 'I' for Inactive)
REMARK    1  A    between atoms: O2_2  and  C16_20 
REMARK    2  A    between atoms: O3_3  and  C17_21 
REMARK    3  A    between atoms: N_4  and  C12_16 
REMARK    4  A    between atoms: C1_5  and  C2_6 
REMARK    5  A    between atoms: C2_6  and  C3_7 
REMARK    6  A    between atoms: C12_16  and  C15_19 
ROOT
HETATM    1  C2  HET A   1     -35.824  22.354 -16.633  1.00 -2.90     0.017 C 
ENDROOT
BRANCH   1   2
HETATM    2  C1  HET A   1     -36.855  21.429 -17.294  1.00 -0.95    -0.011 C 
HETATM    3  C5  HET A   1     -38.117  22.206 -17.707  1.00 -3.14     0.032 C 
HETATM    4  C7  HET A   1     -39.134  21.273 -18.356  1.00 -1.71     0.235 C 
HETATM    5  N   HET A   1     -39.530  20.180 -17.378  1.00 -1.14    -0.067 N 
HETATM    6  C6  HET A   1     -38.302  19.385 -16.965  1.00 -1.68     0.235 C 
HETATM    7  H   HET A   1     -39.947  20.636 -16.526  1.00  3.03     0.280 HD
HETATM    8  C4  HET A   1     -37.267  20.308 -16.323  1.00 -3.17     0.032 C 
BRANCH   5   9
HETATM    9  C12 HET A   1     -40.567  19.257 -18.005  1.00 -1.78     0.273 C 
BRANCH   9  10
HETATM   10  C15 HET A   1     -41.715  19.102 -17.055  1.00 -1.10    -0.033 A 
HETATM   11  C19 HET A   1     -42.886  18.467 -17.470  1.00 -1.37     0.009 A 
HETATM   12  C21 HET A   1     -43.949  18.327 -16.579  1.00 -1.27     0.001 A 
HETATM   13  C22 HET A   1     -43.837  18.824 -15.281  1.00 -1.00     0.000 A 
HETATM   14  C20 HET A   1     -42.661  19.448 -14.866  1.00 -1.23     0.001 A 
HETATM   15  C18 HET A   1     -41.594  19.585 -15.750  1.00 -1.59     0.009 A 
ENDBRANCH   9  10
ENDBRANCH   5   9
ENDBRANCH   1   2
BRANCH   1  16
HETATM   16  C3  HET A   1     -35.393  21.853 -15.256  1.00 -2.25     0.065 A 
HETATM   17  C8  HET A   1     -35.210  22.981 -14.208  1.00 -2.93     0.052 A 
HETATM   18  C10 HET A   1     -33.809  22.804 -13.695  1.00  0.68    -0.041 A 
HETATM   19  C13 HET A   1     -33.205  23.513 -12.663  1.00 -3.15     0.047 A 
HETATM   20  C11 HET A   1     -33.127  21.796 -14.378  1.00 -2.15     0.019 A 
HETATM   21  C16 HET A   1     -31.889  23.191 -12.335  1.00  2.20     0.102 A 
HETATM   22  C17 HET A   1     -31.185  22.170 -13.048  1.00  1.16     0.102 A 
HETATM   23  C14 HET A   1     -31.807  21.470 -14.070  1.00 -1.55     0.055 A 
HETATM   24  C9  HET A   1     -34.004  21.182 -15.377  1.00  4.84     0.164 A 
HETATM   25  O1  HET A   1     -33.764  20.311 -16.166  1.00 -4.36    -0.292 OA
BRANCH  21  26
HETATM   26  O2  HET A   1     -31.157  23.775 -11.361  1.00 -2.48    -0.353 OA
HETATM   27  C23 HET A   1     -31.066  25.196 -11.384  1.00 -2.19     0.210 C 
ENDBRANCH  21  26
BRANCH  22  28
HETATM   28  O3  HET A   1     -29.913  21.985 -12.608  1.00 -2.63    -0.353 OA
HETATM   29  C24 HET A   1     -28.987  21.448 -13.545  1.00 -2.14     0.210 C 
ENDBRANCH  22  28
ENDBRANCH   1  16
TORSDOF 6
ENDMDL
MODEL 16
REMARK VINA RESULT:    -7.244      2.369      4.068
REMARK INTER + INTRA:         -10.613
REMARK INTER:                  -9.685
REMARK INTRA:                  -0.928
REMARK UNBOUND:                -0.828
REMARK  6 active torsions:
REMARK  status: ('A' for Active; 'I' for Inactive)
REMARK    1  A    between atoms: O2_2  and  C16_20 
REMARK    2  A    between atoms: O3_3  and  C17_21 
REMARK    3  A    between atoms: N_4  and  C12_16 
REMARK    4  A    between atoms: C1_5  and  C2_6 
REMARK    5  A    between atoms: C2_6  and  C3_7 
REMARK    6  A    between atoms: C12_16  and  C15_19 
ROOT
HETATM    1  C2  HET A   1     -34.867  20.043 -16.218  1.00 -2.90     0.017 C 
ENDROOT
BRANCH   1   2
HETATM    2  C1  HET A   1     -34.775  19.387 -17.603  1.00 -0.95    -0.011 C 
HETATM    3  C5  HET A   1     -33.804  18.194 -17.591  1.00 -3.14     0.032 C 
HETATM    4  C7  HET A   1     -33.719  17.557 -18.974  1.00 -1.71     0.235 C 
HETATM    5  N   HET A   1     -33.228  18.580 -19.985  1.00 -1.14    -0.067 N 
HETATM    6  C6  HET A   1     -34.181  19.764 -20.028  1.00 -1.68     0.235 C 
HETATM    7  H   HET A   1     -32.278  18.914 -19.680  1.00  3.03     0.280 HD
HETATM    8  C4  HET A   1     -34.287  20.407 -18.646  1.00 -3.17     0.032 C 
BRANCH   5   9
HETATM    9  C12 HET A   1     -33.113  17.947 -21.366  1.00 -1.78     0.273 C 
BRANCH   9  10
HETATM   10  C15 HET A   1     -31.946  18.555 -22.082  1.00 -1.10    -0.033 A 
HETATM   11  C19 HET A   1     -30.783  18.876 -21.380  1.00 -1.37     0.009 A 
HETATM   12  C21 HET A   1     -29.702  19.441 -22.054  1.00 -1.27     0.001 A 
HETATM   13  C22 HET A   1     -29.788  19.685 -23.423  1.00 -1.00     0.000 A 
HETATM   14  C20 HET A   1     -30.948  19.353 -24.125  1.00 -1.23     0.001 A 
HETATM   15  C18 HET A   1     -32.029  18.783 -23.458  1.00 -1.59     0.009 A 
ENDBRANCH   9  10
ENDBRANCH   5   9
ENDBRANCH   1   2
BRANCH   1  16
HETATM   16  C3  HET A   1     -33.890  21.207 -16.062  1.00 -2.25     0.065 A 
HETATM   17  C8  HET A   1     -32.568  20.825 -15.347  1.00 -2.93     0.052 A 
HETATM   18  C10 HET A   1     -32.464  21.784 -14.196  1.00  0.68    -0.041 A 
HETATM   19  C13 HET A   1     -31.398  21.911 -13.312  1.00 -3.15     0.047 A 
HETATM   20  C11 HET A   1     -33.594  22.596 -14.089  1.00 -2.15     0.019 A 
HETATM   21  C16 HET A   1     -31.497  22.872 -12.307  1.00  2.20     0.102 A 
HETATM   22  C17 HET A   1     -32.663  23.691 -12.187  1.00  1.16     0.102 A 
HETATM   23  C14 HET A   1     -33.713  23.553 -13.082  1.00 -1.55     0.055 A 
HETATM   24  C9  HET A   1     -34.539  22.289 -15.166  1.00  4.84     0.164 A 
HETATM   25  O1  HET A   1     -35.621  22.757 -15.382  1.00 -4.36    -0.292 OA
BRANCH  21  26
HETATM   26  O2  HET A   1     -30.555  23.128 -11.372  1.00 -2.48    -0.353 OA
HETATM   27  C23 HET A   1     -29.311  23.648 -11.831  1.00 -2.19     0.210 C 
ENDBRANCH  21  26
BRANCH  22  28
HETATM   28  O3  HET A   1     -32.601  24.570 -11.153  1.00 -2.63    -0.353 OA
HETATM   29  C24 HET A   1     -32.701  25.950 -11.484  1.00 -2.14     0.210 C 
ENDBRANCH  22  28
ENDBRANCH   1  16
TORSDOF 6
ENDMDL
MODEL 17
REMARK VINA RESULT:    -7.121     16.564     22.627
REMARK INTER + INTRA:         -10.448
REMARK INTER:                  -9.585
REMARK INTRA:                  -0.862
REMARK UNBOUND:                -0.828
REMARK  6 active torsions:
REMARK  status: ('A' for Active; 'I' for Inactive)
REMARK    1  A    between atoms: O2_2  and  C16_20 
REMARK    2  A    between atoms: O3_3  and  C17_21 
REMARK    3  A    between atoms: N_4  and  C12_16 
REMARK    4  A    between atoms: C1_5  and  C2_6 
REMARK    5  A    between atoms: C2_6  and  C3_7 
REMARK    6  A    between atoms: C12_16  and  C15_19 
ROOT
HETATM    1  C2  HET A   1     -45.396  29.277  -1.799  1.00 -2.90     0.017 C 
ENDROOT
BRANCH   1   2
HETATM    2  C1  HET A   1     -45.106  30.519  -0.945  1.00 -0.95    -0.011 C 
HETATM    3  C5  HET A   1     -44.220  31.522  -1.703  1.00 -3.14     0.032 C 
HETATM    4  C7  HET A   1     -43.936  32.747  -0.840  1.00 -1.71     0.235 C 
HETATM    5  N   HET A   1     -43.221  32.327   0.434  1.00 -1.14    -0.067 N 
HETATM    6  C6  HET A   1     -44.084  31.346   1.212  1.00 -1.68     0.235 C 
HETATM    7  H   HET A   1     -42.320  31.855   0.165  1.00  3.03     0.280 HD
HETATM    8  C4  HET A   1     -44.388  30.117   0.356  1.00 -3.17     0.032 C 
BRANCH   5   9
HETATM    9  C12 HET A   1     -42.908  33.546   1.293  1.00 -1.78     0.273 C 
BRANCH   9  10
HETATM   10  C15 HET A   1     -41.688  33.259   2.113  1.00 -1.10    -0.033 A 
HETATM   11  C19 HET A   1     -41.798  33.070   3.491  1.00 -1.37     0.009 A 
HETATM   12  C21 HET A   1     -40.657  32.803   4.246  1.00 -1.27     0.001 A 
HETATM   13  C22 HET A   1     -39.413  32.729   3.622  1.00 -1.00     0.000 A 
HETATM   14  C20 HET A   1     -39.307  32.908   2.242  1.00 -1.23     0.001 A 
HETATM   15  C18 HET A   1     -40.444  33.168   1.482  1.00 -1.59     0.009 A 
ENDBRANCH   9  10
ENDBRANCH   5   9
ENDBRANCH   1   2
BRANCH   1  16
HETATM   16  C3  HET A   1     -44.666  28.037  -1.286  1.00 -2.25     0.065 A 
HETATM   17  C8  HET A   1     -43.412  27.660  -2.117  1.00 -2.93     0.052 A 
HETATM   18  C10 HET A   1     -43.637  26.232  -2.524  1.00  0.68    -0.041 A 
HETATM   19  C13 HET A   1     -42.744  25.408  -3.200  1.00 -3.15     0.047 A 
HETATM   20  C11 HET A   1     -44.894  25.769  -2.131  1.00 -2.15     0.019 A 
HETATM   21  C16 HET A   1     -43.147  24.103  -3.482  1.00  2.20     0.102 A 
HETATM   22  C17 HET A   1     -44.442  23.636  -3.094  1.00  1.16     0.102 A 
HETATM   23  C14 HET A   1     -45.315  24.471  -2.415  1.00 -1.55     0.055 A 
HETATM   24  C9  HET A   1     -45.610  26.816  -1.399  1.00  4.84     0.164 A 
HETATM   25  O1  HET A   1     -46.715  26.798  -0.935  1.00 -4.36    -0.292 OA
BRANCH  21  26
HETATM   26  O2  HET A   1     -42.404  23.175  -4.124  1.00 -2.48    -0.353 OA
HETATM   27  C23 HET A   1     -41.186  22.776  -3.504  1.00 -2.19     0.210 C 
ENDBRANCH  21  26
BRANCH  22  28
HETATM   28  O3  HET A   1     -44.677  22.346  -3.449  1.00 -2.63    -0.353 OA
HETATM   29  C24 HET A   1     -45.144  21.478  -2.423  1.00 -2.14     0.210 C 
ENDBRANCH  22  28
ENDBRANCH   1  16
TORSDOF 6
ENDMDL
MODEL 18
REMARK VINA RESULT:    -7.068     38.156     40.871
REMARK INTER + INTRA:         -10.376
REMARK INTER:                  -9.319
REMARK INTRA:                  -1.057
REMARK UNBOUND:                -0.828
REMARK  6 active torsions:
REMARK  status: ('A' for Active; 'I' for Inactive)
REMARK    1  A    between atoms: O2_2  and  C16_20 
REMARK    2  A    between atoms: O3_3  and  C17_21 
REMARK    3  A    between atoms: N_4  and  C12_16 
REMARK    4  A    between atoms: C1_5  and  C2_6 
REMARK    5  A    between atoms: C2_6  and  C3_7 
REMARK    6  A    between atoms: C12_16  and  C15_19 
ROOT
HETATM    1  C2  HET A   1      -6.933  41.843   7.816  1.00 -2.90     0.017 C 
ENDROOT
BRANCH   1   2
HETATM    2  C1  HET A   1      -6.172  41.128   6.690  1.00 -0.95    -0.011 C 
HETATM    3  C5  HET A   1      -4.771  41.731   6.494  1.00 -3.14     0.032 C 
HETATM    4  C7  HET A   1      -4.031  41.016   5.369  1.00 -1.71     0.235 C 
HETATM    5  N   HET A   1      -4.808  41.150   4.070  1.00 -1.14    -0.067 N 
HETATM    6  C6  HET A   1      -6.195  40.545   4.233  1.00 -1.68     0.235 C 
HETATM    7  H   HET A   1      -4.904  42.174   3.849  1.00  3.03     0.280 HD
HETATM    8  C4  HET A   1      -6.946  41.245   5.365  1.00 -3.17     0.032 C 
BRANCH   5   9
HETATM    9  C12 HET A   1      -4.065  40.461   2.933  1.00 -1.78     0.273 C 
BRANCH   9  10
HETATM   10  C15 HET A   1      -4.711  40.838   1.635  1.00 -1.10    -0.033 A 
HETATM   11  C19 HET A   1      -4.726  42.170   1.220  1.00 -1.37     0.009 A 
HETATM   12  C21 HET A   1      -5.329  42.510   0.010  1.00 -1.27     0.001 A 
HETATM   13  C22 HET A   1      -5.915  41.520  -0.776  1.00 -1.00     0.000 A 
HETATM   14  C20 HET A   1      -5.889  40.187  -0.364  1.00 -1.23     0.001 A 
HETATM   15  C18 HET A   1      -5.283  39.841   0.840  1.00 -1.59     0.009 A 
ENDBRANCH   9  10
ENDBRANCH   5   9
ENDBRANCH   1   2
BRANCH   1  16
HETATM   16  C3  HET A   1      -7.084  40.970   9.060  1.00 -2.25     0.065 A 
HETATM   17  C8  HET A   1      -5.754  40.337   9.546  1.00 -2.93     0.052 A 
HETATM   18  C10 HET A   1      -6.029  38.862   9.601  1.00  0.68    -0.041 A 
HETATM   19  C13 HET A   1      -5.176  37.873  10.077  1.00 -3.15     0.047 A 
HETATM   20  C11 HET A   1      -7.300  38.549   9.114  1.00 -2.15     0.019 A 
HETATM   21  C16 HET A   1      -5.626  36.553  10.045  1.00  2.20     0.102 A 
HETATM   22  C17 HET A   1      -6.921  36.233   9.528  1.00  1.16     0.102 A 
HETATM   23  C14 HET A   1      -7.759  37.234   9.064  1.00 -1.55     0.055 A 
HETATM   24  C9  HET A   1      -8.005  39.772   8.724  1.00  4.84     0.164 A 
HETATM   25  O1  HET A   1      -9.095  39.900   8.242  1.00 -4.36    -0.292 OA
BRANCH  21  26
HETATM   26  O2  HET A   1      -4.929  35.477  10.470  1.00 -2.48    -0.353 OA
HETATM   27  C23 HET A   1      -4.278  35.583  11.732  1.00 -2.19     0.210 C 
ENDBRANCH  21  26
BRANCH  22  28
HETATM   28  O3  HET A   1      -7.200  34.904   9.563  1.00 -2.63    -0.353 OA
HETATM   29  C24 HET A   1      -8.357  34.515  10.294  1.00 -2.14     0.210 C 
ENDBRANCH  22  28
ENDBRANCH   1  16
TORSDOF 6
ENDMDL
MODEL 19
REMARK VINA RESULT:    -6.982      6.056      9.797
REMARK INTER + INTRA:         -10.259
REMARK INTER:                  -9.437
REMARK INTRA:                  -0.821
REMARK UNBOUND:                -0.828
REMARK  6 active torsions:
REMARK  status: ('A' for Active; 'I' for Inactive)
REMARK    1  A    between atoms: O2_2  and  C16_20 
REMARK    2  A    between atoms: O3_3  and  C17_21 
REMARK    3  A    between atoms: N_4  and  C12_16 
REMARK    4  A    between atoms: C1_5  and  C2_6 
REMARK    5  A    between atoms: C2_6  and  C3_7 
REMARK    6  A    between atoms: C12_16  and  C15_19 
ROOT
HETATM    1  C2  HET A   1     -34.278  23.610 -19.608  1.00 -2.90     0.017 C 
ENDROOT
BRANCH   1   2
HETATM    2  C1  HET A   1     -34.495  23.070 -18.188  1.00 -0.95    -0.011 C 
HETATM    3  C5  HET A   1     -35.422  23.991 -17.377  1.00 -3.14     0.032 C 
HETATM    4  C7  HET A   1     -35.623  23.445 -15.967  1.00 -1.71     0.235 C 
HETATM    5  N   HET A   1     -34.284  23.347 -15.255  1.00 -1.14    -0.067 N 
HETATM    6  C6  HET A   1     -33.352  22.428 -16.029  1.00 -1.68     0.235 C 
HETATM    7  H   HET A   1     -33.861  24.311 -15.215  1.00  3.03     0.280 HD
HETATM    8  C4  HET A   1     -33.150  22.956 -17.449  1.00 -3.17     0.032 C 
BRANCH   5   9
HETATM    9  C12 HET A   1     -34.474  22.828 -13.836  1.00 -1.78     0.273 C 
BRANCH   9  10
HETATM   10  C15 HET A   1     -33.580  23.600 -12.914  1.00 -1.10    -0.033 A 
HETATM   11  C19 HET A   1     -32.316  23.108 -12.589  1.00 -1.37     0.009 A 
HETATM   12  C21 HET A   1     -31.491  23.833 -11.731  1.00 -1.27     0.001 A 
HETATM   13  C22 HET A   1     -31.934  25.043 -11.201  1.00 -1.00     0.000 A 
HETATM   14  C20 HET A   1     -33.194  25.539 -11.536  1.00 -1.23     0.001 A 
HETATM   15  C18 HET A   1     -34.020  24.822 -12.397  1.00 -1.59     0.009 A 
ENDBRANCH   9  10
ENDBRANCH   5   9
ENDBRANCH   1   2
BRANCH   1  16
HETATM   16  C3  HET A   1     -32.863  24.146 -19.816  1.00 -2.25     0.065 A 
HETATM   17  C8  HET A   1     -32.769  25.694 -19.790  1.00 -2.93     0.052 A 
HETATM   18  C10 HET A   1     -32.110  26.060 -21.089  1.00  0.68    -0.041 A 
HETATM   19  C13 HET A   1     -31.713  27.330 -21.492  1.00 -3.15     0.047 A 
HETATM   20  C11 HET A   1     -31.908  24.945 -21.904  1.00 -2.15     0.019 A 
HETATM   21  C16 HET A   1     -31.111  27.457 -22.743  1.00  2.20     0.102 A 
HETATM   22  C17 HET A   1     -30.920  26.316 -23.585  1.00  1.16     0.102 A 
HETATM   23  C14 HET A   1     -31.318  25.058 -23.162  1.00 -1.55     0.055 A 
HETATM   24  C9  HET A   1     -32.371  23.733 -21.224  1.00  4.84     0.164 A 
HETATM   25  O1  HET A   1     -32.386  22.600 -21.617  1.00 -4.36    -0.292 OA
BRANCH  21  26
HETATM   26  O2  HET A   1     -30.664  28.612 -23.284  1.00 -2.48    -0.353 OA
HETATM   27  C23 HET A   1     -30.295  29.650 -22.382  1.00 -2.19     0.210 C 
ENDBRANCH  21  26
BRANCH  22  28
HETATM   28  O3  HET A   1     -30.327  26.614 -24.770  1.00 -2.63    -0.353 OA
HETATM   29  C24 HET A   1     -29.764  25.525 -25.492  1.00 -2.14     0.210 C 
ENDBRANCH  22  28
ENDBRANCH   1  16
TORSDOF 6
ENDMDL
MODEL 20
REMARK VINA RESULT:    -6.971      6.114      9.739
REMARK INTER + INTRA:         -10.245
REMARK INTER:                  -9.401
REMARK INTRA:                  -0.844
REMARK UNBOUND:                -0.828
REMARK  6 active torsions:
REMARK  status: ('A' for Active; 'I' for Inactive)
REMARK    1  A    between atoms: O2_2  and  C16_20 
REMARK    2  A    between atoms: O3_3  and  C17_21 
REMARK    3  A    between atoms: N_4  and  C12_16 
REMARK    4  A    between atoms: C1_5  and  C2_6 
REMARK    5  A    between atoms: C2_6  and  C3_7 
REMARK    6  A    between atoms: C12_16  and  C15_19 
ROOT
HETATM    1  C2  HET A   1     -33.986  23.297 -19.535  1.00 -2.90     0.017 C 
ENDROOT
BRANCH   1   2
HETATM    2  C1  HET A   1     -34.014  22.683 -18.129  1.00 -0.95    -0.011 C 
HETATM    3  C5  HET A   1     -34.895  23.510 -17.177  1.00 -3.14     0.032 C 
HETATM    4  C7  HET A   1     -34.908  22.892 -15.783  1.00 -1.71     0.235 C 
HETATM    5  N   HET A   1     -33.495  22.842 -15.225  1.00 -1.14    -0.067 N 
HETATM    6  C6  HET A   1     -32.606  22.015 -16.141  1.00 -1.68     0.235 C 
HETATM    7  H   HET A   1     -33.124  23.826 -15.183  1.00  3.03     0.280 HD
HETATM    8  C4  HET A   1     -32.592  22.616 -17.546  1.00 -3.17     0.032 C 
BRANCH   5   9
HETATM    9  C12 HET A   1     -33.499  22.250 -13.822  1.00 -1.78     0.273 C 
BRANCH   9  10
HETATM   10  C15 HET A   1     -32.935  23.260 -12.869  1.00 -1.10    -0.033 A 
HETATM   11  C19 HET A   1     -33.705  24.354 -12.471  1.00 -1.37     0.009 A 
HETATM   12  C21 HET A   1     -33.171  25.288 -11.585  1.00 -1.27     0.001 A 
HETATM   13  C22 HET A   1     -31.874  25.125 -11.103  1.00 -1.00     0.000 A 
HETATM   14  C20 HET A   1     -31.111  24.024 -11.494  1.00 -1.23     0.001 A 
HETATM   15  C18 HET A   1     -31.640  23.086 -12.374  1.00 -1.59     0.009 A 
ENDBRANCH   9  10
ENDBRANCH   5   9
ENDBRANCH   1   2
BRANCH   1  16
HETATM   16  C3  HET A   1     -32.851  24.306 -19.705  1.00 -2.25     0.065 A 
HETATM   17  C8  HET A   1     -33.272  25.774 -19.431  1.00 -2.93     0.052 A 
HETATM   18  C10 HET A   1     -32.890  26.520 -20.677  1.00  0.68    -0.041 A 
HETATM   19  C13 HET A   1     -32.972  27.893 -20.884  1.00 -3.15     0.047 A 
HETATM   20  C11 HET A   1     -32.404  25.666 -21.669  1.00 -2.15     0.019 A 
HETATM   21  C16 HET A   1     -32.560  28.391 -22.119  1.00  2.20     0.102 A 
HETATM   22  C17 HET A   1     -32.079  27.513 -23.141  1.00  1.16     0.102 A 
HETATM   23  C14 HET A   1     -32.000  26.148 -22.913  1.00 -1.55     0.055 A 
HETATM   24  C9  HET A   1     -32.379  24.287 -21.178  1.00  4.84     0.164 A 
HETATM   25  O1  HET A   1     -32.053  23.283 -21.748  1.00 -4.36    -0.292 OA
BRANCH  21  26
HETATM   26  O2  HET A   1     -32.570  29.693 -22.482  1.00 -2.48    -0.353 OA
HETATM   27  C23 HET A   1     -33.835  30.345 -22.521  1.00 -2.19     0.210 C 
ENDBRANCH  21  26
BRANCH  22  28
HETATM   28  O3  HET A   1     -31.726  28.158 -24.283  1.00 -2.63    -0.353 OA
HETATM   29  C24 HET A   1     -32.269  27.649 -25.495  1.00 -2.14     0.210 C 
ENDBRANCH  22  28
ENDBRANCH   1  16
TORSDOF 6
ENDMDL
