REMARK  0 active torsions:
REMARK  status: ('A' for Active; 'I' for Inactive)
ROOT
ATOM      1  O1  HET A   1      -0.294  -0.020   0.138  0.00  0.00    -0.316 OA
ATOM      2  O2  HET A   1       2.067  -0.020   0.138  0.00  0.00    -0.316 OA
ATOM      3  O3  HET A   1      -1.985   9.834   0.138  0.00  0.00    -0.315 OA
ATOM      4  O4  HET A   1      -4.150  10.008  -0.793  0.00  0.00    -0.316 OA
ATOM      5  N   HET A   1       0.133   6.052   0.383  0.00  0.00    -0.306 N 
ATOM      6  C1  HET A   1       1.505   5.923   0.932  0.00  0.00     0.115 C 
ATOM      7  C2  HET A   1      -0.515   4.898  -0.090  0.00  0.00     0.041 A 
ATOM      8  C3  HET A   1       2.311   4.929   0.091  0.00  0.00     0.056 C 
ATOM      9  C4  HET A   1       0.197   3.626   0.019  0.00  0.00     0.002 A 
ATOM     10  C5  HET A   1       1.596   3.616   0.060  0.00  0.00    -0.035 A 
ATOM     11  C6  HET A   1      -1.753   7.400  -0.203  0.00  0.00     0.029 A 
ATOM     12  C7  HET A   1      -0.456   7.252   0.336  0.00  0.00     0.086 A 
ATOM     13  C8  HET A   1      -1.768   5.014  -0.647  0.00  0.00     0.033 A 
ATOM     14  C9  HET A   1      -2.445   6.260  -0.723  0.00  0.00    -0.012 A 
ATOM     15  C10 HET A   1      -0.546   2.421   0.062  0.00  0.00     0.046 A 
ATOM     16  C11 HET A   1       2.335   2.420   0.088  0.00  0.00     0.041 A 
ATOM     17  C12 HET A   1      -2.430   8.618  -0.281  0.00  0.00     0.117 A 
ATOM     18  C13 HET A   1       0.180   1.261   0.099  0.00  0.00     0.109 A 
ATOM     19  C14 HET A   1       1.603   1.257   0.102  0.00  0.00     0.109 A 
ATOM     20  C15 HET A   1      -3.737   6.387  -1.279  0.00  0.00     0.012 A 
ATOM     21  C16 HET A   1      -3.712   8.715  -0.835  0.00  0.00     0.109 A 
ATOM     22  C17 HET A   1      -4.390   7.610  -1.344  0.00  0.00     0.037 A 
ATOM     23  C18 HET A   1       0.884  -0.864   0.160  0.00  0.00     0.337 A 
ATOM     24  C19 HET A   1      -3.072  10.757  -0.175  0.00  0.00     0.337 A 
ENDROOT
TORSDOF 0
