MODEL 1
REMARK VINA RESULT:    -8.312      0.000      0.000
REMARK INTER + INTRA:         -12.062
REMARK INTER:                 -11.228
REMARK INTRA:                  -0.834
REMARK UNBOUND:                -0.834
REMARK  6 active torsions:
REMARK  status: ('A' for Active; 'I' for Inactive)
REMARK    1  A    between atoms: O2_2  and  C16_20 
REMARK    2  A    between atoms: O3_3  and  C17_21 
REMARK    3  A    between atoms: N_4  and  C12_16 
REMARK    4  A    between atoms: C1_5  and  C2_6 
REMARK    5  A    between atoms: C2_6  and  C3_7 
REMARK    6  A    between atoms: C12_16  and  C15_19 
ROOT
HETATM    1  C2  HET A   1     -34.085  21.126 -17.461  1.00 -2.90     0.017 C 
ENDROOT
BRANCH   1   2
HETATM    2  C1  HET A   1     -34.349  19.858 -18.285  1.00 -0.95    -0.011 C 
HETATM    3  C5  HET A   1     -34.985  18.754 -17.423  1.00 -3.14     0.032 C 
HETATM    4  C7  HET A   1     -35.236  17.501 -18.254  1.00 -1.71     0.235 C 
HETATM    5  N   HET A   1     -33.924  16.985 -18.821  1.00 -1.14    -0.067 N 
HETATM    6  C6  HET A   1     -33.282  18.053 -19.692  1.00 -1.68     0.235 C 
HETATM    7  H   HET A   1     -33.281  16.765 -18.017  1.00  3.03     0.280 HD
HETATM    8  C4  HET A   1     -33.034  19.321 -18.877  1.00 -3.17     0.032 C 
BRANCH   5   9
HETATM    9  C12 HET A   1     -34.158  15.717 -19.632  1.00 -1.78     0.273 C 
BRANCH   9  10
HETATM   10  C15 HET A   1     -33.334  14.610 -19.048  1.00 -1.10    -0.033 A 
HETATM   11  C19 HET A   1     -32.092  14.296 -19.598  1.00 -1.37     0.009 A 
HETATM   12  C21 HET A   1     -31.333  13.264 -19.048  1.00 -1.27     0.001 A 
HETATM   13  C22 HET A   1     -31.819  12.552 -17.954  1.00 -1.00     0.000 A 
HETATM   14  C20 HET A   1     -33.057  12.876 -17.398  1.00 -1.23     0.001 A 
HETATM   15  C18 HET A   1     -33.817  13.909 -17.939  1.00 -1.59     0.009 A 
ENDBRANCH   9  10
ENDBRANCH   5   9
ENDBRANCH   1   2
BRANCH   1  16
HETATM   16  C3  HET A   1     -34.195  20.874 -15.958  1.00 -2.25     0.065 A 
HETATM   17  C8  HET A   1     -34.836  22.047 -15.172  1.00 -2.93     0.052 A 
HETATM   18  C10 HET A   1     -33.831  22.391 -14.110  1.00  0.68    -0.041 A 
HETATM   19  C13 HET A   1     -33.988  23.316 -13.084  1.00 -3.15     0.047 A 
HETATM   20  C11 HET A   1     -32.657  21.649 -14.243  1.00 -2.15     0.019 A 
HETATM   21  C16 HET A   1     -32.929  23.486 -12.193  1.00  2.20     0.102 A 
HETATM   22  C17 HET A   1     -31.719  22.737 -12.340  1.00  1.16     0.102 A 
HETATM   23  C14 HET A   1     -31.585  21.815 -13.367  1.00 -1.55     0.055 A 
HETATM   24  C9  HET A   1     -32.772  20.720 -15.369  1.00  4.84     0.164 A 
HETATM   25  O1  HET A   1     -31.964  19.948 -15.803  1.00 -4.36    -0.292 OA
BRANCH  21  26
HETATM   26  O2  HET A   1     -32.917  24.335 -11.142  1.00 -2.48    -0.353 OA
HETATM   27  C23 HET A   1     -33.010  25.726 -11.432  1.00 -2.19     0.210 C 
ENDBRANCH  21  26
BRANCH  22  28
HETATM   28  O3  HET A   1     -30.788  23.027 -11.395  1.00 -2.63    -0.353 OA
HETATM   29  C24 HET A   1     -29.612  23.692 -11.842  1.00 -2.14     0.210 C 
ENDBRANCH  22  28
ENDBRANCH   1  16
TORSDOF 6
ENDMDL
MODEL 2
REMARK VINA RESULT:    -8.303      4.403      6.952
REMARK INTER + INTRA:         -12.049
REMARK INTER:                 -10.868
REMARK INTRA:                  -1.181
REMARK UNBOUND:                -0.834
REMARK  6 active torsions:
REMARK  status: ('A' for Active; 'I' for Inactive)
REMARK    1  A    between atoms: O2_2  and  C16_20 
REMARK    2  A    between atoms: O3_3  and  C17_21 
REMARK    3  A    between atoms: N_4  and  C12_16 
REMARK    4  A    between atoms: C1_5  and  C2_6 
REMARK    5  A    between atoms: C2_6  and  C3_7 
REMARK    6  A    between atoms: C12_16  and  C15_19 
ROOT
HETATM    1  C2  HET A   1     -34.382  21.218 -16.965  1.00 -2.90     0.017 C 
ENDROOT
BRANCH   1   2
HETATM    2  C1  HET A   1     -34.245  22.661 -17.469  1.00 -0.95    -0.011 C 
HETATM    3  C5  HET A   1     -35.089  22.893 -18.734  1.00 -3.14     0.032 C 
HETATM    4  C7  HET A   1     -34.938  24.328 -19.226  1.00 -1.71     0.235 C 
HETATM    5  N   HET A   1     -33.480  24.613 -19.550  1.00 -1.14    -0.067 N 
HETATM    6  C6  HET A   1     -32.625  24.407 -18.309  1.00 -1.68     0.235 C 
HETATM    7  H   HET A   1     -33.171  23.939 -20.296  1.00  3.03     0.280 HD
HETATM    8  C4  HET A   1     -32.775  22.975 -17.796  1.00 -3.17     0.032 C 
BRANCH   5   9
HETATM    9  C12 HET A   1     -33.321  26.037 -20.067  1.00 -1.78     0.273 C 
BRANCH   9  10
HETATM   10  C15 HET A   1     -32.184  26.072 -21.043  1.00 -1.10    -0.033 A 
HETATM   11  C19 HET A   1     -31.953  24.987 -21.890  1.00 -1.37     0.009 A 
HETATM   12  C21 HET A   1     -30.893  25.030 -22.794  1.00 -1.27     0.001 A 
HETATM   13  C22 HET A   1     -30.069  26.152 -22.846  1.00 -1.00     0.000 A 
HETATM   14  C20 HET A   1     -30.309  27.240 -22.005  1.00 -1.23     0.001 A 
HETATM   15  C18 HET A   1     -31.369  27.206 -21.104  1.00 -1.59     0.009 A 
ENDBRANCH   9  10
ENDBRANCH   5   9
ENDBRANCH   1   2
BRANCH   1  16
HETATM   16  C3  HET A   1     -34.357  21.131 -15.440  1.00 -2.25     0.065 A 
HETATM   17  C8  HET A   1     -34.722  22.461 -14.731  1.00 -2.93     0.052 A 
HETATM   18  C10 HET A   1     -33.563  22.737 -13.817  1.00  0.68    -0.041 A 
HETATM   19  C13 HET A   1     -33.461  23.768 -12.889  1.00 -3.15     0.047 A 
HETATM   20  C11 HET A   1     -32.536  21.806 -13.980  1.00 -2.15     0.019 A 
HETATM   21  C16 HET A   1     -32.295  23.848 -12.130  1.00  2.20     0.102 A 
HETATM   22  C17 HET A   1     -31.236  22.904 -12.311  1.00  1.16     0.102 A 
HETATM   23  C14 HET A   1     -31.358  21.880 -13.236  1.00 -1.55     0.055 A 
HETATM   24  C9  HET A   1     -32.917  20.806 -14.979  1.00  4.84     0.164 A 
HETATM   25  O1  HET A   1     -32.288  19.876 -15.401  1.00 -4.36    -0.292 OA
BRANCH  21  26
HETATM   26  O2  HET A   1     -32.036  24.781 -11.186  1.00 -2.48    -0.353 OA
HETATM   27  C23 HET A   1     -32.686  26.040 -11.324  1.00 -2.19     0.210 C 
ENDBRANCH  21  26
BRANCH  22  28
HETATM   28  O3  HET A   1     -30.170  23.128 -11.498  1.00 -2.63    -0.353 OA
HETATM   29  C24 HET A   1     -28.907  23.285 -12.134  1.00 -2.14     0.210 C 
ENDBRANCH  22  28
ENDBRANCH   1  16
TORSDOF 6
ENDMDL
MODEL 3
REMARK VINA RESULT:    -8.170      1.253      1.865
REMARK INTER + INTRA:         -11.870
REMARK INTER:                 -10.982
REMARK INTRA:                  -0.887
REMARK UNBOUND:                -0.834
REMARK  6 active torsions:
REMARK  status: ('A' for Active; 'I' for Inactive)
REMARK    1  A    between atoms: O2_2  and  C16_20 
REMARK    2  A    between atoms: O3_3  and  C17_21 
REMARK    3  A    between atoms: N_4  and  C12_16 
REMARK    4  A    between atoms: C1_5  and  C2_6 
REMARK    5  A    between atoms: C2_6  and  C3_7 
REMARK    6  A    between atoms: C12_16  and  C15_19 
ROOT
HETATM    1  C2  HET A   1     -34.109  20.100 -18.030  1.00 -2.90     0.017 C 
ENDROOT
BRANCH   1   2
HETATM    2  C1  HET A   1     -34.166  18.713 -18.685  1.00 -0.95    -0.011 C 
HETATM    3  C5  HET A   1     -34.276  17.600 -17.628  1.00 -3.14     0.032 C 
HETATM    4  C7  HET A   1     -34.326  16.229 -18.294  1.00 -1.71     0.235 C 
HETATM    5  N   HET A   1     -33.065  16.006 -19.113  1.00 -1.14    -0.067 N 
HETATM    6  C6  HET A   1     -32.941  17.085 -20.177  1.00 -1.68     0.235 C 
HETATM    7  H   HET A   1     -32.237  16.066 -18.465  1.00  3.03     0.280 HD
HETATM    8  C4  HET A   1     -32.902  18.467 -19.526  1.00 -3.17     0.032 C 
BRANCH   5   9
HETATM    9  C12 HET A   1     -33.091  14.628 -19.761  1.00 -1.78     0.273 C 
BRANCH   9  10
HETATM   10  C15 HET A   1     -32.155  13.725 -19.018  1.00 -1.10    -0.033 A 
HETATM   11  C19 HET A   1     -32.636  12.903 -17.999  1.00 -1.37     0.009 A 
HETATM   12  C21 HET A   1     -31.757  12.066 -17.313  1.00 -1.27     0.001 A 
HETATM   13  C22 HET A   1     -30.404  12.057 -17.646  1.00 -1.00     0.000 A 
HETATM   14  C20 HET A   1     -29.927  12.873 -18.672  1.00 -1.23     0.001 A 
HETATM   15  C18 HET A   1     -30.801  13.706 -19.365  1.00 -1.59     0.009 A 
ENDBRANCH   9  10
ENDBRANCH   5   9
ENDBRANCH   1   2
BRANCH   1  16
HETATM   16  C3  HET A   1     -34.365  20.042 -16.525  1.00 -2.25     0.065 A 
HETATM   17  C8  HET A   1     -35.460  21.025 -16.037  1.00 -2.93     0.052 A 
HETATM   18  C10 HET A   1     -34.795  21.838 -14.964  1.00  0.68    -0.041 A 
HETATM   19  C13 HET A   1     -35.396  22.789 -14.147  1.00 -3.15     0.047 A 
HETATM   20  C11 HET A   1     -33.440  21.528 -14.839  1.00 -2.15     0.019 A 
HETATM   21  C16 HET A   1     -34.598  23.434 -13.203  1.00  2.20     0.102 A 
HETATM   22  C17 HET A   1     -33.205  23.129 -13.089  1.00  1.16     0.102 A 
HETATM   23  C14 HET A   1     -32.626  22.173 -13.908  1.00 -1.55     0.055 A 
HETATM   24  C9  HET A   1     -33.077  20.466 -15.780  1.00  4.84     0.164 A 
HETATM   25  O1  HET A   1     -32.008  19.962 -15.981  1.00 -4.36    -0.292 OA
BRANCH  21  26
HETATM   26  O2  HET A   1     -35.020  24.377 -12.332  1.00 -2.48    -0.353 OA
HETATM   27  C23 HET A   1     -36.029  23.994 -11.402  1.00 -2.19     0.210 C 
ENDBRANCH  21  26
BRANCH  22  28
HETATM   28  O3  HET A   1     -32.573  23.849 -12.126  1.00 -2.63    -0.353 OA
HETATM   29  C24 HET A   1     -31.984  23.111 -11.062  1.00 -2.14     0.210 C 
ENDBRANCH  22  28
ENDBRANCH   1  16
TORSDOF 6
ENDMDL
MODEL 4
REMARK VINA RESULT:    -8.020      4.274     10.136
REMARK INTER + INTRA:         -11.666
REMARK INTER:                 -10.905
REMARK INTRA:                  -0.761
REMARK UNBOUND:                -0.834
REMARK  6 active torsions:
REMARK  status: ('A' for Active; 'I' for Inactive)
REMARK    1  A    between atoms: O2_2  and  C16_20 
REMARK    2  A    between atoms: O3_3  and  C17_21 
REMARK    3  A    between atoms: N_4  and  C12_16 
REMARK    4  A    between atoms: C1_5  and  C2_6 
REMARK    5  A    between atoms: C2_6  and  C3_7 
REMARK    6  A    between atoms: C12_16  and  C15_19 
ROOT
HETATM    1  C2  HET A   1     -29.754  20.741 -13.508  1.00 -2.90     0.017 C 
ENDROOT
BRANCH   1   2
HETATM    2  C1  HET A   1     -28.387  21.387 -13.239  1.00 -0.95    -0.011 C 
HETATM    3  C5  HET A   1     -27.489  20.463 -12.399  1.00 -3.14     0.032 C 
HETATM    4  C7  HET A   1     -26.139  21.121 -12.135  1.00 -1.71     0.235 C 
HETATM    5  N   HET A   1     -26.338  22.427 -11.384  1.00 -1.14    -0.067 N 
HETATM    6  C6  HET A   1     -27.211  23.366 -12.201  1.00 -1.68     0.235 C 
HETATM    7  H   HET A   1     -26.822  22.212 -10.474  1.00  3.03     0.280 HD
HETATM    8  C4  HET A   1     -28.565  22.716 -12.484  1.00 -3.17     0.032 C 
BRANCH   5   9
HETATM    9  C12 HET A   1     -24.994  23.080 -11.091  1.00 -1.78     0.273 C 
BRANCH   9  10
HETATM   10  C15 HET A   1     -24.880  23.312  -9.615  1.00 -1.10    -0.033 A 
HETATM   11  C19 HET A   1     -24.506  24.565  -9.129  1.00 -1.37     0.009 A 
HETATM   12  C21 HET A   1     -24.403  24.771  -7.754  1.00 -1.27     0.001 A 
HETATM   13  C22 HET A   1     -24.670  23.724  -6.873  1.00 -1.00     0.000 A 
HETATM   14  C20 HET A   1     -25.054  22.474  -7.362  1.00 -1.23     0.001 A 
HETATM   15  C18 HET A   1     -25.165  22.265  -8.734  1.00 -1.59     0.009 A 
ENDBRANCH   9  10
ENDBRANCH   5   9
ENDBRANCH   1   2
BRANCH   1  16
HETATM   16  C3  HET A   1     -30.663  21.635 -14.349  1.00 -2.25     0.065 A 
HETATM   17  C8  HET A   1     -32.118  21.722 -13.820  1.00 -2.93     0.052 A 
HETATM   18  C10 HET A   1     -32.974  21.319 -14.987  1.00  0.68    -0.041 A 
HETATM   19  C13 HET A   1     -34.363  21.335 -15.045  1.00 -3.15     0.047 A 
HETATM   20  C11 HET A   1     -32.208  20.911 -16.080  1.00 -2.15     0.019 A 
HETATM   21  C16 HET A   1     -34.970  20.922 -16.231  1.00  2.20     0.102 A 
HETATM   22  C17 HET A   1     -34.184  20.487 -17.344  1.00  1.16     0.102 A 
HETATM   23  C14 HET A   1     -32.800  20.484 -17.268  1.00 -1.55     0.055 A 
HETATM   24  C9  HET A   1     -30.782  21.035 -15.770  1.00  4.84     0.164 A 
HETATM   25  O1  HET A   1     -29.831  20.756 -16.445  1.00 -4.36    -0.292 OA
BRANCH  21  26
HETATM   26  O2  HET A   1     -36.301  20.881 -16.457  1.00 -2.48    -0.353 OA
HETATM   27  C23 HET A   1     -37.156  21.041 -15.329  1.00 -2.19     0.210 C 
ENDBRANCH  21  26
BRANCH  22  28
HETATM   28  O3  HET A   1     -34.929  20.114 -18.416  1.00 -2.63    -0.353 OA
HETATM   29  C24 HET A   1     -34.827  18.753 -18.820  1.00 -2.14     0.210 C 
ENDBRANCH  22  28
ENDBRANCH   1  16
TORSDOF 6
ENDMDL
MODEL 5
REMARK VINA RESULT:    -7.952      5.237      7.100
REMARK INTER + INTRA:         -11.576
REMARK INTER:                 -10.826
REMARK INTRA:                  -0.749
REMARK UNBOUND:                -0.834
REMARK  6 active torsions:
REMARK  status: ('A' for Active; 'I' for Inactive)
REMARK    1  A    between atoms: O2_2  and  C16_20 
REMARK    2  A    between atoms: O3_3  and  C17_21 
REMARK    3  A    between atoms: N_4  and  C12_16 
REMARK    4  A    between atoms: C1_5  and  C2_6 
REMARK    5  A    between atoms: C2_6  and  C3_7 
REMARK    6  A    between atoms: C12_16  and  C15_19 
ROOT
HETATM    1  C2  HET A   1     -37.046  22.665 -13.786  1.00 -2.90     0.017 C 
ENDROOT
BRANCH   1   2
HETATM    2  C1  HET A   1     -37.857  22.226 -15.013  1.00 -0.95    -0.011 C 
HETATM    3  C5  HET A   1     -39.290  22.782 -14.962  1.00 -3.14     0.032 C 
HETATM    4  C7  HET A   1     -40.085  22.332 -16.183  1.00 -1.71     0.235 C 
HETATM    5  N   HET A   1     -40.149  20.814 -16.228  1.00 -1.14    -0.067 N 
HETATM    6  C6  HET A   1     -38.743  20.239 -16.295  1.00 -1.68     0.235 C 
HETATM    7  H   HET A   1     -40.616  20.479 -15.346  1.00  3.03     0.280 HD
HETATM    8  C4  HET A   1     -37.929  20.691 -15.083  1.00 -3.17     0.032 C 
BRANCH   5   9
HETATM    9  C12 HET A   1     -40.964  20.353 -17.430  1.00 -1.78     0.273 C 
BRANCH   9  10
HETATM   10  C15 HET A   1     -42.108  19.516 -16.946  1.00 -1.10    -0.033 A 
HETATM   11  C19 HET A   1     -42.862  18.770 -17.852  1.00 -1.37     0.009 A 
HETATM   12  C21 HET A   1     -43.925  17.993 -17.392  1.00 -1.27     0.001 A 
HETATM   13  C22 HET A   1     -44.229  17.968 -16.033  1.00 -1.00     0.000 A 
HETATM   14  C20 HET A   1     -43.466  18.707 -15.127  1.00 -1.23     0.001 A 
HETATM   15  C18 HET A   1     -42.401  19.479 -15.580  1.00 -1.59     0.009 A 
ENDBRANCH   9  10
ENDBRANCH   5   9
ENDBRANCH   1   2
BRANCH   1  16
HETATM   16  C3  HET A   1     -35.695  23.268 -14.169  1.00 -2.25     0.065 A 
HETATM   17  C8  HET A   1     -34.667  22.226 -14.681  1.00 -2.93     0.052 A 
HETATM   18  C10 HET A   1     -33.464  22.410 -13.800  1.00  0.68    -0.041 A 
HETATM   19  C13 HET A   1     -32.234  21.775 -13.927  1.00 -3.15     0.047 A 
HETATM   20  C11 HET A   1     -33.697  23.341 -12.787  1.00 -2.15     0.019 A 
HETATM   21  C16 HET A   1     -31.239  22.091 -13.003  1.00  2.20     0.102 A 
HETATM   22  C17 HET A   1     -31.485  23.032 -11.954  1.00  1.16     0.102 A 
HETATM   23  C14 HET A   1     -32.717  23.659 -11.848  1.00 -1.55     0.055 A 
HETATM   24  C9  HET A   1     -35.049  23.892 -12.910  1.00  4.84     0.164 A 
HETATM   25  O1  HET A   1     -35.611  24.688 -12.211  1.00 -4.36    -0.292 OA
BRANCH  21  26
HETATM   26  O2  HET A   1     -29.992  21.571 -12.985  1.00 -2.48    -0.353 OA
HETATM   27  C23 HET A   1     -29.583  20.828 -14.128  1.00 -2.19     0.210 C 
ENDBRANCH  21  26
BRANCH  22  28
HETATM   28  O3  HET A   1     -30.416  23.220 -11.138  1.00 -2.63    -0.353 OA
HETATM   29  C24 HET A   1     -30.650  23.953  -9.941  1.00 -2.14     0.210 C 
ENDBRANCH  22  28
ENDBRANCH   1  16
TORSDOF 6
ENDMDL
MODEL 6
REMARK VINA RESULT:    -7.822      1.311      2.347
REMARK INTER + INTRA:         -11.399
REMARK INTER:                 -10.998
REMARK INTRA:                  -0.402
REMARK UNBOUND:                -0.834
REMARK  6 active torsions:
REMARK  status: ('A' for Active; 'I' for Inactive)
REMARK    1  A    between atoms: O2_2  and  C16_20 
REMARK    2  A    between atoms: O3_3  and  C17_21 
REMARK    3  A    between atoms: N_4  and  C12_16 
REMARK    4  A    between atoms: C1_5  and  C2_6 
REMARK    5  A    between atoms: C2_6  and  C3_7 
REMARK    6  A    between atoms: C12_16  and  C15_19 
ROOT
HETATM    1  C2  HET A   1     -35.434  20.476 -16.132  1.00 -2.90     0.017 C 
ENDROOT
BRANCH   1   2
HETATM    2  C1  HET A   1     -35.127  19.584 -17.343  1.00 -0.95    -0.011 C 
HETATM    3  C5  HET A   1     -36.317  18.667 -17.675  1.00 -3.14     0.032 C 
HETATM    4  C7  HET A   1     -35.995  17.782 -18.875  1.00 -1.71     0.235 C 
HETATM    5  N   HET A   1     -34.781  16.920 -18.571  1.00 -1.14    -0.067 N 
HETATM    6  C6  HET A   1     -33.584  17.804 -18.254  1.00 -1.68     0.235 C 
HETATM    7  H   HET A   1     -35.001  16.326 -17.730  1.00  3.03     0.280 HD
HETATM    8  C4  HET A   1     -33.896  18.706 -17.060  1.00 -3.17     0.032 C 
BRANCH   5   9
HETATM    9  C12 HET A   1     -34.465  16.013 -19.753  1.00 -1.78     0.273 C 
BRANCH   9  10
HETATM   10  C15 HET A   1     -33.589  14.892 -19.282  1.00 -1.10    -0.033 A 
HETATM   11  C19 HET A   1     -33.999  14.077 -18.227  1.00 -1.37     0.009 A 
HETATM   12  C21 HET A   1     -33.177  13.037 -17.797  1.00 -1.27     0.001 A 
HETATM   13  C22 HET A   1     -31.950  12.819 -18.419  1.00 -1.00     0.000 A 
HETATM   14  C20 HET A   1     -31.546  13.629 -19.481  1.00 -1.23     0.001 A 
HETATM   15  C18 HET A   1     -32.366  14.665 -19.919  1.00 -1.59     0.009 A 
ENDBRANCH   9  10
ENDBRANCH   5   9
ENDBRANCH   1   2
BRANCH   1  16
HETATM   16  C3  HET A   1     -34.416  21.604 -15.970  1.00 -2.25     0.065 A 
HETATM   17  C8  HET A   1     -33.142  21.191 -15.189  1.00 -2.93     0.052 A 
HETATM   18  C10 HET A   1     -33.045  22.181 -14.064  1.00  0.68    -0.041 A 
HETATM   19  C13 HET A   1     -32.012  22.292 -13.140  1.00 -3.15     0.047 A 
HETATM   20  C11 HET A   1     -34.143  23.042 -14.029  1.00 -2.15     0.019 A 
HETATM   21  C16 HET A   1     -32.111  23.288 -12.169  1.00  2.20     0.102 A 
HETATM   22  C17 HET A   1     -33.246  24.158 -12.124  1.00  1.16     0.102 A 
HETATM   23  C14 HET A   1     -34.262  24.034 -13.058  1.00 -1.55     0.055 A 
HETATM   24  C9  HET A   1     -35.054  22.740 -15.136  1.00  4.84     0.164 A 
HETATM   25  O1  HET A   1     -36.107  23.244 -15.412  1.00 -4.36    -0.292 OA
BRANCH  21  26
HETATM   26  O2  HET A   1     -31.198  23.536 -11.204  1.00 -2.48    -0.353 OA
HETATM   27  C23 HET A   1     -29.878  23.861 -11.627  1.00 -2.19     0.210 C 
ENDBRANCH  21  26
BRANCH  22  28
HETATM   28  O3  HET A   1     -33.189  25.066 -11.115  1.00 -2.63    -0.353 OA
HETATM   29  C24 HET A   1     -32.793  26.386 -11.469  1.00 -2.14     0.210 C 
ENDBRANCH  22  28
ENDBRANCH   1  16
TORSDOF 6
ENDMDL
MODEL 7
REMARK VINA RESULT:    -7.792      3.454      9.286
REMARK INTER + INTRA:         -11.359
REMARK INTER:                 -10.598
REMARK INTRA:                  -0.761
REMARK UNBOUND:                -0.834
REMARK  6 active torsions:
REMARK  status: ('A' for Active; 'I' for Inactive)
REMARK    1  A    between atoms: O2_2  and  C16_20 
REMARK    2  A    between atoms: O3_3  and  C17_21 
REMARK    3  A    between atoms: N_4  and  C12_16 
REMARK    4  A    between atoms: C1_5  and  C2_6 
REMARK    5  A    between atoms: C2_6  and  C3_7 
REMARK    6  A    between atoms: C12_16  and  C15_19 
ROOT
HETATM    1  C2  HET A   1     -32.764  21.018 -18.789  1.00 -2.90     0.017 C 
ENDROOT
BRANCH   1   2
HETATM    2  C1  HET A   1     -33.400  21.401 -17.445  1.00 -0.95    -0.011 C 
HETATM    3  C5  HET A   1     -33.281  22.911 -17.181  1.00 -3.14     0.032 C 
HETATM    4  C7  HET A   1     -33.912  23.274 -15.841  1.00 -1.71     0.235 C 
HETATM    5  N   HET A   1     -33.212  22.524 -14.720  1.00 -1.14    -0.067 N 
HETATM    6  C6  HET A   1     -33.329  21.025 -14.949  1.00 -1.68     0.235 C 
HETATM    7  H   HET A   1     -32.195  22.794 -14.728  1.00  3.03     0.280 HD
HETATM    8  C4  HET A   1     -32.712  20.646 -16.294  1.00 -3.17     0.032 C 
BRANCH   5   9
HETATM    9  C12 HET A   1     -33.816  22.899 -13.373  1.00 -1.78     0.273 C 
BRANCH   9  10
HETATM   10  C15 HET A   1     -32.792  23.647 -12.575  1.00 -1.10    -0.033 A 
HETATM   11  C19 HET A   1     -31.511  23.121 -12.410  1.00 -1.37     0.009 A 
HETATM   12  C21 HET A   1     -30.565  23.824 -11.666  1.00 -1.27     0.001 A 
HETATM   13  C22 HET A   1     -30.905  25.047 -11.089  1.00 -1.00     0.000 A 
HETATM   14  C20 HET A   1     -32.184  25.576 -11.265  1.00 -1.23     0.001 A 
HETATM   15  C18 HET A   1     -33.130  24.881 -12.012  1.00 -1.59     0.009 A 
ENDBRANCH   9  10
ENDBRANCH   5   9
ENDBRANCH   1   2
BRANCH   1  16
HETATM   16  C3  HET A   1     -33.526  19.898 -19.494  1.00 -2.25     0.065 A 
HETATM   17  C8  HET A   1     -34.498  19.122 -18.568  1.00 -2.93     0.052 A 
HETATM   18  C10 HET A   1     -34.091  17.683 -18.705  1.00  0.68    -0.041 A 
HETATM   19  C13 HET A   1     -34.729  16.581 -18.147  1.00 -3.15     0.047 A 
HETATM   20  C11 HET A   1     -32.953  17.536 -19.500  1.00 -2.15     0.019 A 
HETATM   21  C16 HET A   1     -34.190  15.320 -18.400  1.00  2.20     0.102 A 
HETATM   22  C17 HET A   1     -33.014  15.172 -19.200  1.00  1.16     0.102 A 
HETATM   23  C14 HET A   1     -32.396  16.283 -19.752  1.00 -1.55     0.055 A 
HETATM   24  C9  HET A   1     -32.514  18.842 -19.997  1.00  4.84     0.164 A 
HETATM   25  O1  HET A   1     -31.567  19.115 -20.680  1.00 -4.36    -0.292 OA
BRANCH  21  26
HETATM   26  O2  HET A   1     -34.685  14.149 -17.940  1.00 -2.48    -0.353 OA
HETATM   27  C23 HET A   1     -34.575  13.904 -16.542  1.00 -2.19     0.210 C 
ENDBRANCH  21  26
BRANCH  22  28
HETATM   28  O3  HET A   1     -32.618  13.880 -19.342  1.00 -2.63    -0.353 OA
HETATM   29  C24 HET A   1     -32.141  13.499 -20.627  1.00 -2.14     0.210 C 
ENDBRANCH  22  28
ENDBRANCH   1  16
TORSDOF 6
ENDMDL
MODEL 8
REMARK VINA RESULT:    -7.651     15.789     22.009
REMARK INTER + INTRA:         -11.168
REMARK INTER:                 -10.308
REMARK INTRA:                  -0.860
REMARK UNBOUND:                -0.834
REMARK  6 active torsions:
REMARK  status: ('A' for Active; 'I' for Inactive)
REMARK    1  A    between atoms: O2_2  and  C16_20 
REMARK    2  A    between atoms: O3_3  and  C17_21 
REMARK    3  A    between atoms: N_4  and  C12_16 
REMARK    4  A    between atoms: C1_5  and  C2_6 
REMARK    5  A    between atoms: C2_6  and  C3_7 
REMARK    6  A    between atoms: C12_16  and  C15_19 
ROOT
HETATM    1  C2  HET A   1     -45.312  28.385  -1.427  1.00 -2.90     0.017 C 
ENDROOT
BRANCH   1   2
HETATM    2  C1  HET A   1     -45.149  29.776  -0.800  1.00 -0.95    -0.011 C 
HETATM    3  C5  HET A   1     -44.166  30.641  -1.608  1.00 -3.14     0.032 C 
HETATM    4  C7  HET A   1     -44.010  32.017  -0.969  1.00 -1.71     0.235 C 
HETATM    5  N   HET A   1     -43.485  31.872   0.449  1.00 -1.14    -0.067 N 
HETATM    6  C6  HET A   1     -44.448  31.034   1.275  1.00 -1.68     0.235 C 
HETATM    7  H   HET A   1     -42.554  31.384   0.407  1.00  3.03     0.280 HD
HETATM    8  C4  HET A   1     -44.625  29.655   0.641  1.00 -3.17     0.032 C 
BRANCH   5   9
HETATM    9  C12 HET A   1     -43.300  33.242   1.088  1.00 -1.78     0.273 C 
BRANCH   9  10
HETATM   10  C15 HET A   1     -42.032  33.237   1.887  1.00 -1.10    -0.033 A 
HETATM   11  C19 HET A   1     -40.804  33.430   1.253  1.00 -1.37     0.009 A 
HETATM   12  C21 HET A   1     -39.630  33.423   2.004  1.00 -1.27     0.001 A 
HETATM   13  C22 HET A   1     -39.688  33.221   3.382  1.00 -1.00     0.000 A 
HETATM   14  C20 HET A   1     -40.919  33.039   4.015  1.00 -1.23     0.001 A 
HETATM   15  C18 HET A   1     -42.095  33.050   3.270  1.00 -1.59     0.009 A 
ENDBRANCH   9  10
ENDBRANCH   5   9
ENDBRANCH   1   2
BRANCH   1  16
HETATM   16  C3  HET A   1     -44.050  27.925  -2.155  1.00 -2.25     0.065 A 
HETATM   17  C8  HET A   1     -44.299  27.479  -3.620  1.00 -2.93     0.052 A 
HETATM   18  C10 HET A   1     -43.743  26.086  -3.696  1.00  0.68    -0.041 A 
HETATM   19  C13 HET A   1     -43.636  25.294  -4.833  1.00 -3.15     0.047 A 
HETATM   20  C11 HET A   1     -43.303  25.631  -2.452  1.00 -2.15     0.019 A 
HETATM   21  C16 HET A   1     -43.082  24.022  -4.691  1.00  2.20     0.102 A 
HETATM   22  C17 HET A   1     -42.649  23.550  -3.412  1.00  1.16     0.102 A 
HETATM   23  C14 HET A   1     -42.758  24.358  -2.291  1.00 -1.55     0.055 A 
HETATM   24  C9  HET A   1     -43.486  26.674  -1.440  1.00  4.84     0.164 A 
HETATM   25  O1  HET A   1     -43.253  26.642  -0.264  1.00 -4.36    -0.292 OA
BRANCH  21  26
HETATM   26  O2  HET A   1     -42.903  23.129  -5.689  1.00 -2.48    -0.353 OA
HETATM   27  C23 HET A   1     -43.250  23.549  -7.005  1.00 -2.19     0.210 C 
ENDBRANCH  21  26
BRANCH  22  28
HETATM   28  O3  HET A   1     -42.141  22.291  -3.447  1.00 -2.63    -0.353 OA
HETATM   29  C24 HET A   1     -40.801  22.132  -2.995  1.00 -2.14     0.210 C 
ENDBRANCH  22  28
ENDBRANCH   1  16
TORSDOF 6
ENDMDL
MODEL 9
REMARK VINA RESULT:    -7.491      5.065      8.583
REMARK INTER + INTRA:         -10.953
REMARK INTER:                 -10.496
REMARK INTRA:                  -0.457
REMARK UNBOUND:                -0.834
REMARK  6 active torsions:
REMARK  status: ('A' for Active; 'I' for Inactive)
REMARK    1  A    between atoms: O2_2  and  C16_20 
REMARK    2  A    between atoms: O3_3  and  C17_21 
REMARK    3  A    between atoms: N_4  and  C12_16 
REMARK    4  A    between atoms: C1_5  and  C2_6 
REMARK    5  A    between atoms: C2_6  and  C3_7 
REMARK    6  A    between atoms: C12_16  and  C15_19 
ROOT
HETATM    1  C2  HET A   1     -32.639  20.987 -14.337  1.00 -2.90     0.017 C 
ENDROOT
BRANCH   1   2
HETATM    2  C1  HET A   1     -31.402  21.841 -14.025  1.00 -0.95    -0.011 C 
HETATM    3  C5  HET A   1     -30.121  20.989 -14.026  1.00 -3.14     0.032 C 
HETATM    4  C7  HET A   1     -28.903  21.850 -13.709  1.00 -1.71     0.235 C 
HETATM    5  N   HET A   1     -29.065  22.492 -12.340  1.00 -1.14    -0.067 N 
HETATM    6  C6  HET A   1     -30.317  23.354 -12.318  1.00 -1.68     0.235 C 
HETATM    7  H   HET A   1     -29.163  21.724 -11.627  1.00  3.03     0.280 HD
HETATM    8  C4  HET A   1     -31.547  22.507 -12.646  1.00 -3.17     0.032 C 
BRANCH   5   9
HETATM    9  C12 HET A   1     -27.842  23.333 -12.001  1.00 -1.78     0.273 C 
BRANCH   9  10
HETATM   10  C15 HET A   1     -26.616  22.481 -12.134  1.00 -1.10    -0.033 A 
HETATM   11  C19 HET A   1     -26.561  21.232 -11.516  1.00 -1.37     0.009 A 
HETATM   12  C21 HET A   1     -25.417  20.447 -11.646  1.00 -1.27     0.001 A 
HETATM   13  C22 HET A   1     -24.335  20.914 -12.389  1.00 -1.00     0.000 A 
HETATM   14  C20 HET A   1     -24.397  22.159 -13.016  1.00 -1.23     0.001 A 
HETATM   15  C18 HET A   1     -25.539  22.945 -12.894  1.00 -1.59     0.009 A 
ENDBRANCH   9  10
ENDBRANCH   5   9
ENDBRANCH   1   2
BRANCH   1  16
HETATM   16  C3  HET A   1     -33.689  21.756 -15.136  1.00 -2.25     0.065 A 
HETATM   17  C8  HET A   1     -34.657  22.591 -14.259  1.00 -2.93     0.052 A 
HETATM   18  C10 HET A   1     -36.030  22.126 -14.653  1.00  0.68    -0.041 A 
HETATM   19  C13 HET A   1     -37.243  22.647 -14.218  1.00 -3.15     0.047 A 
HETATM   20  C11 HET A   1     -35.980  21.065 -15.560  1.00 -2.15     0.019 A 
HETATM   21  C16 HET A   1     -38.413  22.071 -14.710  1.00  2.20     0.102 A 
HETATM   22  C17 HET A   1     -38.361  20.973 -15.626  1.00  1.16     0.102 A 
HETATM   23  C14 HET A   1     -37.142  20.471 -16.052  1.00 -1.55     0.055 A 
HETATM   24  C9  HET A   1     -34.589  20.745 -15.886  1.00  4.84     0.164 A 
HETATM   25  O1  HET A   1     -34.154  19.885 -16.600  1.00 -4.36    -0.292 OA
BRANCH  21  26
HETATM   26  O2  HET A   1     -39.669  22.457 -14.396  1.00 -2.48    -0.353 OA
HETATM   27  C23 HET A   1     -40.012  23.816 -14.647  1.00 -2.19     0.210 C 
ENDBRANCH  21  26
BRANCH  22  28
HETATM   28  O3  HET A   1     -39.588  20.527 -16.002  1.00 -2.63    -0.353 OA
HETATM   29  C24 HET A   1     -39.875  20.551 -17.395  1.00 -2.14     0.210 C 
ENDBRANCH  22  28
ENDBRANCH   1  16
TORSDOF 6
ENDMDL
MODEL 10
REMARK VINA RESULT:    -7.464      6.731     10.842
REMARK INTER + INTRA:         -10.916
REMARK INTER:                 -10.287
REMARK INTRA:                  -0.629
REMARK UNBOUND:                -0.834
REMARK  6 active torsions:
REMARK  status: ('A' for Active; 'I' for Inactive)
REMARK    1  A    between atoms: O2_2  and  C16_20 
REMARK    2  A    between atoms: O3_3  and  C17_21 
REMARK    3  A    between atoms: N_4  and  C12_16 
REMARK    4  A    between atoms: C1_5  and  C2_6 
REMARK    5  A    between atoms: C2_6  and  C3_7 
REMARK    6  A    between atoms: C12_16  and  C15_19 
ROOT
HETATM    1  C2  HET A   1     -38.398  21.174 -14.311  1.00 -2.90     0.017 C 
ENDROOT
BRANCH   1   2
HETATM    2  C1  HET A   1     -37.606  22.450 -13.998  1.00 -0.95    -0.011 C 
HETATM    3  C5  HET A   1     -36.210  22.413 -14.644  1.00 -3.14     0.032 C 
HETATM    4  C7  HET A   1     -35.434  23.685 -14.319  1.00 -1.71     0.235 C 
HETATM    5  N   HET A   1     -35.274  23.822 -12.813  1.00 -1.14    -0.067 N 
HETATM    6  C6  HET A   1     -36.642  23.878 -12.151  1.00 -1.68     0.235 C 
HETATM    7  H   HET A   1     -34.754  22.978 -12.459  1.00  3.03     0.280 HD
HETATM    8  C4  HET A   1     -37.438  22.615 -12.477  1.00 -3.17     0.032 C 
BRANCH   5   9
HETATM    9  C12 HET A   1     -34.476  25.075 -12.477  1.00 -1.78     0.273 C 
BRANCH   9  10
HETATM   10  C15 HET A   1     -33.074  24.678 -12.130  1.00 -1.10    -0.033 A 
HETATM   11  C19 HET A   1     -32.208  25.602 -11.544  1.00 -1.37     0.009 A 
HETATM   12  C21 HET A   1     -30.906  25.222 -11.224  1.00 -1.27     0.001 A 
HETATM   13  C22 HET A   1     -30.475  23.925 -11.492  1.00 -1.00     0.000 A 
HETATM   14  C20 HET A   1     -31.346  22.999 -12.068  1.00 -1.23     0.001 A 
HETATM   15  C18 HET A   1     -32.650  23.371 -12.384  1.00 -1.59     0.009 A 
ENDBRANCH   9  10
ENDBRANCH   5   9
ENDBRANCH   1   2
BRANCH   1  16
HETATM   16  C3  HET A   1     -39.759  21.474 -14.937  1.00 -2.25     0.065 A 
HETATM   17  C8  HET A   1     -40.955  20.862 -14.161  1.00 -2.93     0.052 A 
HETATM   18  C10 HET A   1     -41.694  20.044 -15.180  1.00  0.68    -0.041 A 
HETATM   19  C13 HET A   1     -42.901  19.378 -14.996  1.00 -3.15     0.047 A 
HETATM   20  C11 HET A   1     -41.032  20.016 -16.408  1.00 -2.15     0.019 A 
HETATM   21  C16 HET A   1     -43.426  18.672 -16.077  1.00  2.20     0.102 A 
HETATM   22  C17 HET A   1     -42.737  18.630 -17.330  1.00  1.16     0.102 A 
HETATM   23  C14 HET A   1     -41.538  19.306 -17.495  1.00 -1.55     0.055 A 
HETATM   24  C9  HET A   1     -39.817  20.833 -16.344  1.00  4.84     0.164 A 
HETATM   25  O1  HET A   1     -38.986  21.026 -17.186  1.00 -4.36    -0.292 OA
BRANCH  21  26
HETATM   26  O2  HET A   1     -44.585  17.976 -16.071  1.00 -2.48    -0.353 OA
HETATM   27  C23 HET A   1     -45.165  17.694 -14.802  1.00 -2.19     0.210 C 
ENDBRANCH  21  26
BRANCH  22  28
HETATM   28  O3  HET A   1     -43.381  17.895 -18.274  1.00 -2.63    -0.353 OA
HETATM   29  C24 HET A   1     -42.862  17.964 -19.597  1.00 -2.14     0.210 C 
ENDBRANCH  22  28
ENDBRANCH   1  16
TORSDOF 6
ENDMDL
MODEL 11
REMARK VINA RESULT:    -7.409      5.440      7.480
REMARK INTER + INTRA:         -10.842
REMARK INTER:                 -10.077
REMARK INTRA:                  -0.766
REMARK UNBOUND:                -0.834
REMARK  6 active torsions:
REMARK  status: ('A' for Active; 'I' for Inactive)
REMARK    1  A    between atoms: O2_2  and  C16_20 
REMARK    2  A    between atoms: O3_3  and  C17_21 
REMARK    3  A    between atoms: N_4  and  C12_16 
REMARK    4  A    between atoms: C1_5  and  C2_6 
REMARK    5  A    between atoms: C2_6  and  C3_7 
REMARK    6  A    between atoms: C12_16  and  C15_19 
ROOT
HETATM    1  C2  HET A   1     -36.276  23.765 -15.476  1.00 -2.90     0.017 C 
ENDROOT
BRANCH   1   2
HETATM    2  C1  HET A   1     -37.807  23.878 -15.447  1.00 -0.95    -0.011 C 
HETATM    3  C5  HET A   1     -38.401  23.109 -14.255  1.00 -3.14     0.032 C 
HETATM    4  C7  HET A   1     -39.921  23.226 -14.244  1.00 -1.71     0.235 C 
HETATM    5  N   HET A   1     -40.493  22.654 -15.530  1.00 -1.14    -0.067 N 
HETATM    6  C6  HET A   1     -39.934  23.409 -16.726  1.00 -1.68     0.235 C 
HETATM    7  H   HET A   1     -40.207  21.643 -15.597  1.00  3.03     0.280 HD
HETATM    8  C4  HET A   1     -38.409  23.311 -16.745  1.00 -3.17     0.032 C 
BRANCH   5   9
HETATM    9  C12 HET A   1     -42.014  22.741 -15.519  1.00 -1.78     0.273 C 
BRANCH   9  10
HETATM   10  C15 HET A   1     -42.578  21.371 -15.744  1.00 -1.10    -0.033 A 
HETATM   11  C19 HET A   1     -42.368  20.363 -14.803  1.00 -1.37     0.009 A 
HETATM   12  C21 HET A   1     -42.898  19.092 -15.021  1.00 -1.27     0.001 A 
HETATM   13  C22 HET A   1     -43.631  18.835 -16.178  1.00 -1.00     0.000 A 
HETATM   14  C20 HET A   1     -43.849  19.848 -17.113  1.00 -1.23     0.001 A 
HETATM   15  C18 HET A   1     -43.328  21.120 -16.897  1.00 -1.59     0.009 A 
ENDBRANCH   9  10
ENDBRANCH   5   9
ENDBRANCH   1   2
BRANCH   1  16
HETATM   16  C3  HET A   1     -35.729  22.995 -14.276  1.00 -2.25     0.065 A 
HETATM   17  C8  HET A   1     -35.082  23.898 -13.194  1.00 -2.93     0.052 A 
HETATM   18  C10 HET A   1     -33.696  23.349 -13.014  1.00  0.68    -0.041 A 
HETATM   19  C13 HET A   1     -32.754  23.756 -12.077  1.00 -3.15     0.047 A 
HETATM   20  C11 HET A   1     -33.421  22.320 -13.917  1.00 -2.15     0.019 A 
HETATM   21  C16 HET A   1     -31.518  23.110 -12.072  1.00  2.20     0.102 A 
HETATM   22  C17 HET A   1     -31.231  22.069 -13.010  1.00  1.16     0.102 A 
HETATM   23  C14 HET A   1     -32.187  21.673 -13.933  1.00 -1.55     0.055 A 
HETATM   24  C9  HET A   1     -34.594  22.059 -14.755  1.00  4.84     0.164 A 
HETATM   25  O1  HET A   1     -34.726  21.275 -15.653  1.00 -4.36    -0.292 OA
BRANCH  21  26
HETATM   26  O2  HET A   1     -30.496  23.379 -11.230  1.00 -2.48    -0.353 OA
HETATM   27  C23 HET A   1     -30.799  24.139 -10.064  1.00 -2.19     0.210 C 
ENDBRANCH  21  26
BRANCH  22  28
HETATM   28  O3  HET A   1     -29.983  21.551 -12.874  1.00 -2.63    -0.353 OA
HETATM   29  C24 HET A   1     -29.457  20.856 -13.998  1.00 -2.14     0.210 C 
ENDBRANCH  22  28
ENDBRANCH   1  16
TORSDOF 6
ENDMDL
MODEL 12
REMARK VINA RESULT:    -7.389     18.051     23.505
REMARK INTER + INTRA:         -10.815
REMARK INTER:                  -9.810
REMARK INTRA:                  -1.004
REMARK UNBOUND:                -0.834
REMARK  6 active torsions:
REMARK  status: ('A' for Active; 'I' for Inactive)
REMARK    1  A    between atoms: O2_2  and  C16_20 
REMARK    2  A    between atoms: O3_3  and  C17_21 
REMARK    3  A    between atoms: N_4  and  C12_16 
REMARK    4  A    between atoms: C1_5  and  C2_6 
REMARK    5  A    between atoms: C2_6  and  C3_7 
REMARK    6  A    between atoms: C12_16  and  C15_19 
ROOT
HETATM    1  C2  HET A   1     -44.001  31.845  -1.344  1.00 -2.90     0.017 C 
ENDROOT
BRANCH   1   2
HETATM    2  C1  HET A   1     -43.913  31.861   0.188  1.00 -0.95    -0.011 C 
HETATM    3  C5  HET A   1     -43.896  33.300   0.731  1.00 -3.14     0.032 C 
HETATM    4  C7  HET A   1     -43.803  33.299   2.253  1.00 -1.71     0.235 C 
HETATM    5  N   HET A   1     -42.530  32.595   2.693  1.00 -1.14    -0.067 N 
HETATM    6  C6  HET A   1     -42.529  31.163   2.182  1.00 -1.68     0.235 C 
HETATM    7  H   HET A   1     -41.710  33.108   2.278  1.00  3.03     0.280 HD
HETATM    8  C4  HET A   1     -42.634  31.145   0.657  1.00 -3.17     0.032 C 
BRANCH   5   9
HETATM    9  C12 HET A   1     -42.412  32.611   4.211  1.00 -1.78     0.273 C 
BRANCH   9  10
HETATM   10  C15 HET A   1     -41.021  32.205   4.592  1.00 -1.10    -0.033 A 
HETATM   11  C19 HET A   1     -40.818  31.264   5.603  1.00 -1.37     0.009 A 
HETATM   12  C21 HET A   1     -39.521  30.892   5.951  1.00 -1.27     0.001 A 
HETATM   13  C22 HET A   1     -38.434  31.462   5.290  1.00 -1.00     0.000 A 
HETATM   14  C20 HET A   1     -38.640  32.395   4.272  1.00 -1.23     0.001 A 
HETATM   15  C18 HET A   1     -39.934  32.765   3.917  1.00 -1.59     0.009 A 
ENDBRANCH   9  10
ENDBRANCH   5   9
ENDBRANCH   1   2
BRANCH   1  16
HETATM   16  C3  HET A   1     -44.775  30.637  -1.868  1.00 -2.25     0.065 A 
HETATM   17  C8  HET A   1     -45.425  29.777  -0.753  1.00 -2.93     0.052 A 
HETATM   18  C10 HET A   1     -44.905  28.388  -0.989  1.00  0.68    -0.041 A 
HETATM   19  C13 HET A   1     -45.277  27.233  -0.310  1.00 -3.15     0.047 A 
HETATM   20  C11 HET A   1     -43.965  28.351  -2.021  1.00 -2.15     0.019 A 
HETATM   21  C16 HET A   1     -44.675  26.033  -0.687  1.00  2.20     0.102 A 
HETATM   22  C17 HET A   1     -43.699  25.999  -1.732  1.00  1.16     0.102 A 
HETATM   23  C14 HET A   1     -43.346  27.161  -2.401  1.00 -1.55     0.055 A 
HETATM   24  C9  HET A   1     -43.793  29.687  -2.594  1.00  4.84     0.164 A 
HETATM   25  O1  HET A   1     -43.059  30.049  -3.470  1.00 -4.36    -0.292 OA
BRANCH  21  26
HETATM   26  O2  HET A   1     -44.923  24.824  -0.137  1.00 -2.48    -0.353 OA
HETATM   27  C23 HET A   1     -44.705  24.693   1.264  1.00 -2.19     0.210 C 
ENDBRANCH  21  26
BRANCH  22  28
HETATM   28  O3  HET A   1     -43.207  24.756  -1.970  1.00 -2.63    -0.353 OA
HETATM   29  C24 HET A   1     -43.024  24.393  -3.334  1.00 -2.14     0.210 C 
ENDBRANCH  22  28
ENDBRANCH   1  16
TORSDOF 6
ENDMDL
MODEL 13
REMARK VINA RESULT:    -7.270     17.653     22.394
REMARK INTER + INTRA:         -10.654
REMARK INTER:                  -9.778
REMARK INTRA:                  -0.876
REMARK UNBOUND:                -0.834
REMARK  6 active torsions:
REMARK  status: ('A' for Active; 'I' for Inactive)
REMARK    1  A    between atoms: O2_2  and  C16_20 
REMARK    2  A    between atoms: O3_3  and  C17_21 
REMARK    3  A    between atoms: N_4  and  C12_16 
REMARK    4  A    between atoms: C1_5  and  C2_6 
REMARK    5  A    between atoms: C2_6  and  C3_7 
REMARK    6  A    between atoms: C12_16  and  C15_19 
ROOT
HETATM    1  C2  HET A   1     -44.281  29.741  -2.942  1.00 -2.90     0.017 C 
ENDROOT
BRANCH   1   2
HETATM    2  C1  HET A   1     -44.235  30.301  -1.513  1.00 -0.95    -0.011 C 
HETATM    3  C5  HET A   1     -44.130  31.835  -1.517  1.00 -3.14     0.032 C 
HETATM    4  C7  HET A   1     -44.079  32.375  -0.092  1.00 -1.71     0.235 C 
HETATM    5  N   HET A   1     -42.874  31.802   0.636  1.00 -1.14    -0.067 N 
HETATM    6  C6  HET A   1     -42.963  30.284   0.669  1.00 -1.68     0.235 C 
HETATM    7  H   HET A   1     -42.007  32.084   0.109  1.00  3.03     0.280 HD
HETATM    8  C4  HET A   1     -43.026  29.728  -0.754  1.00 -3.17     0.032 C 
BRANCH   5   9
HETATM    9  C12 HET A   1     -42.798  32.355   2.053  1.00 -1.78     0.273 C 
BRANCH   9  10
HETATM   10  C15 HET A   1     -41.360  32.584   2.407  1.00 -1.10    -0.033 A 
HETATM   11  C19 HET A   1     -40.801  31.947   3.515  1.00 -1.37     0.009 A 
HETATM   12  C21 HET A   1     -39.463  32.166   3.836  1.00 -1.27     0.001 A 
HETATM   13  C22 HET A   1     -38.691  33.020   3.051  1.00 -1.00     0.000 A 
HETATM   14  C20 HET A   1     -39.250  33.647   1.936  1.00 -1.23     0.001 A 
HETATM   15  C18 HET A   1     -40.584  33.427   1.607  1.00 -1.59     0.009 A 
ENDBRANCH   9  10
ENDBRANCH   5   9
ENDBRANCH   1   2
BRANCH   1  16
HETATM   16  C3  HET A   1     -44.964  28.377  -3.010  1.00 -2.25     0.065 A 
HETATM   17  C8  HET A   1     -45.496  27.874  -1.642  1.00 -2.93     0.052 A 
HETATM   18  C10 HET A   1     -44.864  26.523  -1.460  1.00  0.68    -0.041 A 
HETATM   19  C13 HET A   1     -45.109  25.622  -0.430  1.00 -3.15     0.047 A 
HETATM   20  C11 HET A   1     -43.962  26.226  -2.483  1.00 -2.15     0.019 A 
HETATM   21  C16 HET A   1     -44.418  24.412  -0.445  1.00  2.20     0.102 A 
HETATM   22  C17 HET A   1     -43.480  24.116  -1.484  1.00  1.16     0.102 A 
HETATM   23  C14 HET A   1     -43.254  25.025  -2.506  1.00 -1.55     0.055 A 
HETATM   24  C9  HET A   1     -43.929  27.319  -3.458  1.00  4.84     0.164 A 
HETATM   25  O1  HET A   1     -43.260  27.434  -4.447  1.00 -4.36    -0.292 OA
BRANCH  21  26
HETATM   26  O2  HET A   1     -44.539  23.427   0.473  1.00 -2.48    -0.353 OA
HETATM   27  C23 HET A   1     -45.796  23.308   1.132  1.00 -2.19     0.210 C 
ENDBRANCH  21  26
BRANCH  22  28
HETATM   28  O3  HET A   1     -42.889  22.901  -1.347  1.00 -2.63    -0.353 OA
HETATM   29  C24 HET A   1     -42.322  22.332  -2.521  1.00 -2.14     0.210 C 
ENDBRANCH  22  28
ENDBRANCH   1  16
TORSDOF 6
ENDMDL
MODEL 14
REMARK VINA RESULT:    -7.210      5.919      9.649
REMARK INTER + INTRA:         -10.572
REMARK INTER:                  -9.709
REMARK INTRA:                  -0.863
REMARK UNBOUND:                -0.834
REMARK  6 active torsions:
REMARK  status: ('A' for Active; 'I' for Inactive)
REMARK    1  A    between atoms: O2_2  and  C16_20 
REMARK    2  A    between atoms: O3_3  and  C17_21 
REMARK    3  A    between atoms: N_4  and  C12_16 
REMARK    4  A    between atoms: C1_5  and  C2_6 
REMARK    5  A    between atoms: C2_6  and  C3_7 
REMARK    6  A    between atoms: C12_16  and  C15_19 
ROOT
HETATM    1  C2  HET A   1     -34.100  23.282 -19.265  1.00 -2.90     0.017 C 
ENDROOT
BRANCH   1   2
HETATM    2  C1  HET A   1     -34.156  22.768 -17.820  1.00 -0.95    -0.011 C 
HETATM    3  C5  HET A   1     -34.850  23.781 -16.893  1.00 -3.14     0.032 C 
HETATM    4  C7  HET A   1     -34.893  23.258 -15.461  1.00 -1.71     0.235 C 
HETATM    5  N   HET A   1     -33.480  23.019 -14.956  1.00 -1.14    -0.067 N 
HETATM    6  C6  HET A   1     -32.776  22.007 -15.846  1.00 -1.68     0.235 C 
HETATM    7  H   HET A   1     -32.958  23.933 -14.994  1.00  3.03     0.280 HD
HETATM    8  C4  HET A   1     -32.735  22.511 -17.288  1.00 -3.17     0.032 C 
BRANCH   5   9
HETATM    9  C12 HET A   1     -33.509  22.522 -13.516  1.00 -1.78     0.273 C 
BRANCH   9  10
HETATM   10  C15 HET A   1     -32.614  23.391 -12.686  1.00 -1.10    -0.033 A 
HETATM   11  C19 HET A   1     -31.296  23.006 -12.439  1.00 -1.37     0.009 A 
HETATM   12  C21 HET A   1     -30.471  23.821 -11.666  1.00 -1.27     0.001 A 
HETATM   13  C22 HET A   1     -30.967  25.014 -11.143  1.00 -1.00     0.000 A 
HETATM   14  C20 HET A   1     -32.282  25.402 -11.400  1.00 -1.23     0.001 A 
HETATM   15  C18 HET A   1     -33.108  24.595 -12.177  1.00 -1.59     0.009 A 
ENDBRANCH   9  10
ENDBRANCH   5   9
ENDBRANCH   1   2
BRANCH   1  16
HETATM   16  C3  HET A   1     -32.773  23.968 -19.585  1.00 -2.25     0.065 A 
HETATM   17  C8  HET A   1     -32.811  25.511 -19.428  1.00 -2.93     0.052 A 
HETATM   18  C10 HET A   1     -32.353  26.042 -20.756  1.00  0.68    -0.041 A 
HETATM   19  C13 HET A   1     -32.120  27.373 -21.085  1.00 -3.15     0.047 A 
HETATM   20  C11 HET A   1     -32.157  25.021 -21.688  1.00 -2.15     0.019 A 
HETATM   21  C16 HET A   1     -31.691  27.658 -22.381  1.00  2.20     0.102 A 
HETATM   22  C17 HET A   1     -31.508  26.612 -23.339  1.00  1.16     0.102 A 
HETATM   23  C14 HET A   1     -31.740  25.291 -22.990  1.00 -1.55     0.055 A 
HETATM   24  C9  HET A   1     -32.426  23.719 -21.072  1.00  4.84     0.164 A 
HETATM   25  O1  HET A   1     -32.391  22.626 -21.562  1.00 -4.36    -0.292 OA
BRANCH  21  26
HETATM   26  O2  HET A   1     -31.416  28.890 -22.862  1.00 -2.48    -0.353 OA
HETATM   27  C23 HET A   1     -30.283  29.560 -22.320  1.00 -2.19     0.210 C 
ENDBRANCH  21  26
BRANCH  22  28
HETATM   28  O3  HET A   1     -31.094  27.061 -24.553  1.00 -2.63    -0.353 OA
HETATM   29  C24 HET A   1     -29.854  26.552 -25.031  1.00 -2.14     0.210 C 
ENDBRANCH  22  28
ENDBRANCH   1  16
TORSDOF 6
ENDMDL
MODEL 15
REMARK VINA RESULT:    -7.201     39.533     41.075
REMARK INTER + INTRA:         -10.561
REMARK INTER:                  -9.634
REMARK INTRA:                  -0.927
REMARK UNBOUND:                -0.834
REMARK  6 active torsions:
REMARK  status: ('A' for Active; 'I' for Inactive)
REMARK    1  A    between atoms: O2_2  and  C16_20 
REMARK    2  A    between atoms: O3_3  and  C17_21 
REMARK    3  A    between atoms: N_4  and  C12_16 
REMARK    4  A    between atoms: C1_5  and  C2_6 
REMARK    5  A    between atoms: C2_6  and  C3_7 
REMARK    6  A    between atoms: C12_16  and  C15_19 
ROOT
HETATM    1  C2  HET A   1      -6.033  42.053   6.538  1.00 -2.90     0.017 C 
ENDROOT
BRANCH   1   2
HETATM    2  C1  HET A   1      -6.690  41.557   7.833  1.00 -0.95    -0.011 C 
HETATM    3  C5  HET A   1      -5.745  40.633   8.621  1.00 -3.14     0.032 C 
HETATM    4  C7  HET A   1      -6.414  40.144   9.900  1.00 -1.71     0.235 C 
HETATM    5  N   HET A   1      -7.680  39.374   9.560  1.00 -1.14    -0.067 N 
HETATM    6  C6  HET A   1      -8.640  40.271   8.794  1.00 -1.68     0.235 C 
HETATM    7  H   HET A   1      -7.415  38.557   8.953  1.00  3.03     0.280 HD
HETATM    8  C4  HET A   1      -7.980  40.780   7.514  1.00 -3.17     0.032 C 
BRANCH   5   9
HETATM    9  C12 HET A   1      -8.344  38.857  10.829  1.00 -1.78     0.273 C 
BRANCH   9  10
HETATM   10  C15 HET A   1      -8.305  37.359  10.820  1.00 -1.10    -0.033 A 
HETATM   11  C19 HET A   1      -7.985  36.674   9.647  1.00 -1.37     0.009 A 
HETATM   12  C21 HET A   1      -7.952  35.281   9.648  1.00 -1.27     0.001 A 
HETATM   13  C22 HET A   1      -8.240  34.580  10.818  1.00 -1.00     0.000 A 
HETATM   14  C20 HET A   1      -8.549  35.268  11.992  1.00 -1.23     0.001 A 
HETATM   15  C18 HET A   1      -8.578  36.660  11.998  1.00 -1.59     0.009 A 
ENDBRANCH   9  10
ENDBRANCH   5   9
ENDBRANCH   1   2
BRANCH   1  16
HETATM   16  C3  HET A   1      -5.677  40.909   5.592  1.00 -2.25     0.065 A 
HETATM   17  C8  HET A   1      -4.158  40.785   5.300  1.00 -2.93     0.052 A 
HETATM   18  C10 HET A   1      -4.051  40.835   3.803  1.00  0.68    -0.041 A 
HETATM   19  C13 HET A   1      -2.899  40.661   3.045  1.00 -3.15     0.047 A 
HETATM   20  C11 HET A   1      -5.286  41.075   3.199  1.00 -2.15     0.019 A 
HETATM   21  C16 HET A   1      -3.013  40.742   1.658  1.00  2.20     0.102 A 
HETATM   22  C17 HET A   1      -4.276  41.006   1.041  1.00  1.16     0.102 A 
HETATM   23  C14 HET A   1      -5.415  41.170   1.814  1.00 -1.55     0.055 A 
HETATM   24  C9  HET A   1      -6.335  41.171   4.217  1.00  4.84     0.164 A 
HETATM   25  O1  HET A   1      -7.505  41.396   4.083  1.00 -4.36    -0.292 OA
BRANCH  21  26
HETATM   26  O2  HET A   1      -1.999  40.594   0.777  1.00 -2.48    -0.353 OA
HETATM   27  C23 HET A   1      -0.877  41.458   0.929  1.00 -2.19     0.210 C 
ENDBRANCH  21  26
BRANCH  22  28
HETATM   28  O3  HET A   1      -4.213  41.058  -0.315  1.00 -2.63    -0.353 OA
HETATM   29  C24 HET A   1      -4.502  42.314  -0.918  1.00 -2.14     0.210 C 
ENDBRANCH  22  28
ENDBRANCH   1  16
TORSDOF 6
ENDMDL
MODEL 16
REMARK VINA RESULT:    -7.195     17.404     22.153
REMARK INTER + INTRA:         -10.552
REMARK INTER:                  -9.611
REMARK INTRA:                  -0.941
REMARK UNBOUND:                -0.834
REMARK  6 active torsions:
REMARK  status: ('A' for Active; 'I' for Inactive)
REMARK    1  A    between atoms: O2_2  and  C16_20 
REMARK    2  A    between atoms: O3_3  and  C17_21 
REMARK    3  A    between atoms: N_4  and  C12_16 
REMARK    4  A    between atoms: C1_5  and  C2_6 
REMARK    5  A    between atoms: C2_6  and  C3_7 
REMARK    6  A    between atoms: C12_16  and  C15_19 
ROOT
HETATM    1  C2  HET A   1     -43.976  31.964  -0.191  1.00 -2.90     0.017 C 
ENDROOT
BRANCH   1   2
HETATM    2  C1  HET A   1     -44.663  31.047  -1.213  1.00 -0.95    -0.011 C 
HETATM    3  C5  HET A   1     -45.480  29.948  -0.513  1.00 -3.14     0.032 C 
HETATM    4  C7  HET A   1     -46.151  29.041  -1.540  1.00 -1.71     0.235 C 
HETATM    5  N   HET A   1     -45.097  28.385  -2.418  1.00 -1.14    -0.067 N 
HETATM    6  C6  HET A   1     -44.284  29.452  -3.134  1.00 -1.68     0.235 C 
HETATM    7  H   HET A   1     -44.458  27.823  -1.799  1.00  3.03     0.280 HD
HETATM    8  C4  HET A   1     -43.614  30.377  -2.118  1.00 -3.17     0.032 C 
BRANCH   5   9
HETATM    9  C12 HET A   1     -45.754  27.457  -3.430  1.00 -1.78     0.273 C 
BRANCH   9  10
HETATM   10  C15 HET A   1     -44.808  26.338  -3.745  1.00 -1.10    -0.033 A 
HETATM   11  C19 HET A   1     -44.297  26.195  -5.035  1.00 -1.37     0.009 A 
HETATM   12  C21 HET A   1     -43.417  25.151  -5.318  1.00 -1.27     0.001 A 
HETATM   13  C22 HET A   1     -43.056  24.256  -4.313  1.00 -1.00     0.000 A 
HETATM   14  C20 HET A   1     -43.561  24.408  -3.021  1.00 -1.23     0.001 A 
HETATM   15  C18 HET A   1     -44.434  25.452  -2.732  1.00 -1.59     0.009 A 
ENDBRANCH   9  10
ENDBRANCH   5   9
ENDBRANCH   1   2
BRANCH   1  16
HETATM   16  C3  HET A   1     -43.851  31.311   1.184  1.00 -2.25     0.065 A 
HETATM   17  C8  HET A   1     -44.364  32.199   2.348  1.00 -2.93     0.052 A 
HETATM   18  C10 HET A   1     -43.207  32.287   3.301  1.00  0.68    -0.041 A 
HETATM   19  C13 HET A   1     -43.204  32.892   4.553  1.00 -3.15     0.047 A 
HETATM   20  C11 HET A   1     -42.066  31.659   2.797  1.00 -2.15     0.019 A 
HETATM   21  C16 HET A   1     -42.020  32.860   5.288  1.00  2.20     0.102 A 
HETATM   22  C17 HET A   1     -40.847  32.233   4.763  1.00  1.16     0.102 A 
HETATM   23  C14 HET A   1     -40.872  31.630   3.515  1.00 -1.55     0.055 A 
HETATM   24  C9  HET A   1     -42.354  31.066   1.489  1.00  4.84     0.164 A 
HETATM   25  O1  HET A   1     -41.623  30.476   0.745  1.00 -4.36    -0.292 OA
BRANCH  21  26
HETATM   26  O2  HET A   1     -41.846  33.394   6.518  1.00 -2.48    -0.353 OA
HETATM   27  C23 HET A   1     -42.798  33.044   7.517  1.00 -2.19     0.210 C 
ENDBRANCH  21  26
BRANCH  22  28
HETATM   28  O3  HET A   1     -39.780  32.296   5.602  1.00 -2.63    -0.353 OA
HETATM   29  C24 HET A   1     -38.518  31.931   5.056  1.00 -2.14     0.210 C 
ENDBRANCH  22  28
ENDBRANCH   1  16
TORSDOF 6
ENDMDL
MODEL 17
REMARK VINA RESULT:    -7.159      4.997      8.549
REMARK INTER + INTRA:         -10.504
REMARK INTER:                  -9.825
REMARK INTRA:                  -0.679
REMARK UNBOUND:                -0.834
REMARK  6 active torsions:
REMARK  status: ('A' for Active; 'I' for Inactive)
REMARK    1  A    between atoms: O2_2  and  C16_20 
REMARK    2  A    between atoms: O3_3  and  C17_21 
REMARK    3  A    between atoms: N_4  and  C12_16 
REMARK    4  A    between atoms: C1_5  and  C2_6 
REMARK    5  A    between atoms: C2_6  and  C3_7 
REMARK    6  A    between atoms: C12_16  and  C15_19 
ROOT
HETATM    1  C2  HET A   1     -32.629  20.698 -14.642  1.00 -2.90     0.017 C 
ENDROOT
BRANCH   1   2
HETATM    2  C1  HET A   1     -31.464  21.612 -14.240  1.00 -0.95    -0.011 C 
HETATM    3  C5  HET A   1     -30.135  20.838 -14.204  1.00 -3.14     0.032 C 
HETATM    4  C7  HET A   1     -28.988  21.758 -13.797  1.00 -1.71     0.235 C 
HETATM    5  N   HET A   1     -29.255  22.339 -12.418  1.00 -1.14    -0.067 N 
HETATM    6  C6  HET A   1     -30.558  23.124 -12.431  1.00 -1.68     0.235 C 
HETATM    7  H   HET A   1     -29.341  21.542 -11.737  1.00  3.03     0.280 HD
HETATM    8  C4  HET A   1     -31.716  22.219 -12.848  1.00 -3.17     0.032 C 
BRANCH   5   9
HETATM    9  C12 HET A   1     -28.104  23.239 -11.990  1.00 -1.78     0.273 C 
BRANCH   9  10
HETATM   10  C15 HET A   1     -26.818  22.484 -12.139  1.00 -1.10    -0.033 A 
HETATM   11  C19 HET A   1     -26.704  21.188 -11.635  1.00 -1.37     0.009 A 
HETATM   12  C21 HET A   1     -25.504  20.494 -11.779  1.00 -1.27     0.001 A 
HETATM   13  C22 HET A   1     -24.425  21.097 -12.422  1.00 -1.00     0.000 A 
HETATM   14  C20 HET A   1     -24.546  22.389 -12.935  1.00 -1.23     0.001 A 
HETATM   15  C18 HET A   1     -25.744  23.085 -12.800  1.00 -1.59     0.009 A 
ENDBRANCH   9  10
ENDBRANCH   5   9
ENDBRANCH   1   2
BRANCH   1  16
HETATM   16  C3  HET A   1     -33.060  20.910 -16.092  1.00 -2.25     0.065 A 
HETATM   17  C8  HET A   1     -32.143  21.878 -16.883  1.00 -2.93     0.052 A 
HETATM   18  C10 HET A   1     -33.069  22.932 -17.418  1.00  0.68    -0.041 A 
HETATM   19  C13 HET A   1     -32.739  23.972 -18.279  1.00 -3.15     0.047 A 
HETATM   20  C11 HET A   1     -34.376  22.761 -16.957  1.00 -2.15     0.019 A 
HETATM   21  C16 HET A   1     -33.754  24.848 -18.663  1.00  2.20     0.102 A 
HETATM   22  C17 HET A   1     -35.088  24.682 -18.176  1.00  1.16     0.102 A 
HETATM   23  C14 HET A   1     -35.399  23.635 -17.322  1.00 -1.55     0.055 A 
HETATM   24  C9  HET A   1     -34.459  21.570 -16.108  1.00  4.84     0.164 A 
HETATM   25  O1  HET A   1     -35.401  21.124 -15.517  1.00 -4.36    -0.292 OA
BRANCH  21  26
HETATM   26  O2  HET A   1     -33.606  25.904 -19.493  1.00 -2.48    -0.353 OA
HETATM   27  C23 HET A   1     -33.089  25.639 -20.793  1.00 -2.19     0.210 C 
ENDBRANCH  21  26
BRANCH  22  28
HETATM   28  O3  HET A   1     -35.952  25.622 -18.641  1.00 -2.63    -0.353 OA
HETATM   29  C24 HET A   1     -37.017  25.157 -19.461  1.00 -2.14     0.210 C 
ENDBRANCH  22  28
ENDBRANCH   1  16
TORSDOF 6
ENDMDL
MODEL 18
REMARK VINA RESULT:    -7.097     39.097     40.928
REMARK INTER + INTRA:         -10.420
REMARK INTER:                  -9.842
REMARK INTRA:                  -0.578
REMARK UNBOUND:                -0.834
REMARK  6 active torsions:
REMARK  status: ('A' for Active; 'I' for Inactive)
REMARK    1  A    between atoms: O2_2  and  C16_20 
REMARK    2  A    between atoms: O3_3  and  C17_21 
REMARK    3  A    between atoms: N_4  and  C12_16 
REMARK    4  A    between atoms: C1_5  and  C2_6 
REMARK    5  A    between atoms: C2_6  and  C3_7 
REMARK    6  A    between atoms: C12_16  and  C15_19 
ROOT
HETATM    1  C2  HET A   1      -6.495  41.548   8.052  1.00 -2.90     0.017 C 
ENDROOT
BRANCH   1   2
HETATM    2  C1  HET A   1      -6.431  42.150   6.641  1.00 -0.95    -0.011 C 
HETATM    3  C5  HET A   1      -7.071  41.211   5.604  1.00 -3.14     0.032 C 
HETATM    4  C7  HET A   1      -6.993  41.821   4.208  1.00 -1.71     0.235 C 
HETATM    5  N   HET A   1      -5.541  42.056   3.826  1.00 -1.14    -0.067 N 
HETATM    6  C6  HET A   1      -4.889  42.996   4.828  1.00 -1.68     0.235 C 
HETATM    7  H   HET A   1      -5.041  41.130   3.847  1.00  3.03     0.280 HD
HETATM    8  C4  HET A   1      -4.969  42.405   6.236  1.00 -3.17     0.032 C 
BRANCH   5   9
HETATM    9  C12 HET A   1      -5.450  42.640   2.423  1.00 -1.78     0.273 C 
BRANCH   9  10
HETATM   10  C15 HET A   1      -4.713  41.676   1.544  1.00 -1.10    -0.033 A 
HETATM   11  C19 HET A   1      -5.297  40.458   1.195  1.00 -1.37     0.009 A 
HETATM   12  C21 HET A   1      -4.603  39.567   0.378  1.00 -1.27     0.001 A 
HETATM   13  C22 HET A   1      -3.330  39.896  -0.084  1.00 -1.00     0.000 A 
HETATM   14  C20 HET A   1      -2.752  41.120   0.258  1.00 -1.23     0.001 A 
HETATM   15  C18 HET A   1      -3.443  42.015   1.069  1.00 -1.59     0.009 A 
ENDBRANCH   9  10
ENDBRANCH   5   9
ENDBRANCH   1   2
BRANCH   1  16
HETATM   16  C3  HET A   1      -7.518  40.418   8.154  1.00 -2.25     0.065 A 
HETATM   17  C8  HET A   1      -8.508  40.574   9.338  1.00 -2.93     0.052 A 
HETATM   18  C10 HET A   1      -8.383  39.294  10.113  1.00  0.68    -0.041 A 
HETATM   19  C13 HET A   1      -9.143  38.908  11.211  1.00 -3.15     0.047 A 
HETATM   20  C11 HET A   1      -7.383  38.467   9.598  1.00 -2.15     0.019 A 
HETATM   21  C16 HET A   1      -8.870  37.669  11.789  1.00  2.20     0.102 A 
HETATM   22  C17 HET A   1      -7.833  36.831  11.271  1.00  1.16     0.102 A 
HETATM   23  C14 HET A   1      -7.090  37.231  10.172  1.00 -1.55     0.055 A 
HETATM   24  C9  HET A   1      -6.773  39.089   8.420  1.00  4.84     0.164 A 
HETATM   25  O1  HET A   1      -5.872  38.694   7.734  1.00 -4.36    -0.292 OA
BRANCH  21  26
HETATM   26  O2  HET A   1      -9.514  37.141  12.853  1.00 -2.48    -0.353 OA
HETATM   27  C23 HET A   1     -10.439  37.983  13.534  1.00 -2.19     0.210 C 
ENDBRANCH  21  26
BRANCH  22  28
HETATM   28  O3  HET A   1      -7.694  35.663  11.952  1.00 -2.63    -0.353 OA
HETATM   29  C24 HET A   1      -8.450  34.556  11.478  1.00 -2.14     0.210 C 
ENDBRANCH  22  28
ENDBRANCH   1  16
TORSDOF 6
ENDMDL
MODEL 19
REMARK VINA RESULT:    -7.076     38.166     40.854
REMARK INTER + INTRA:         -10.391
REMARK INTER:                  -9.310
REMARK INTRA:                  -1.081
REMARK UNBOUND:                -0.834
REMARK  6 active torsions:
REMARK  status: ('A' for Active; 'I' for Inactive)
REMARK    1  A    between atoms: O2_2  and  C16_20 
REMARK    2  A    between atoms: O3_3  and  C17_21 
REMARK    3  A    between atoms: N_4  and  C12_16 
REMARK    4  A    between atoms: C1_5  and  C2_6 
REMARK    5  A    between atoms: C2_6  and  C3_7 
REMARK    6  A    between atoms: C12_16  and  C15_19 
ROOT
HETATM    1  C2  HET A   1      -6.959  41.840   7.809  1.00 -2.90     0.017 C 
ENDROOT
BRANCH   1   2
HETATM    2  C1  HET A   1      -6.191  41.128   6.687  1.00 -0.95    -0.011 C 
HETATM    3  C5  HET A   1      -4.808  41.763   6.468  1.00 -3.14     0.032 C 
HETATM    4  C7  HET A   1      -4.060  41.050   5.346  1.00 -1.71     0.235 C 
HETATM    5  N   HET A   1      -4.853  41.145   4.053  1.00 -1.14    -0.067 N 
HETATM    6  C6  HET A   1      -6.222  40.508   4.238  1.00 -1.68     0.235 C 
HETATM    7  H   HET A   1      -4.977  42.163   3.817  1.00  3.03     0.280 HD
HETATM    8  C4  HET A   1      -6.980  41.205   5.368  1.00 -3.17     0.032 C 
BRANCH   5   9
HETATM    9  C12 HET A   1      -4.104  40.458   2.919  1.00 -1.78     0.273 C 
BRANCH   9  10
HETATM   10  C15 HET A   1      -4.733  40.849   1.617  1.00 -1.10    -0.033 A 
HETATM   11  C19 HET A   1      -4.715  42.181   1.202  1.00 -1.37     0.009 A 
HETATM   12  C21 HET A   1      -5.304  42.534  -0.012  1.00 -1.27     0.001 A 
HETATM   13  C22 HET A   1      -5.907  41.558  -0.801  1.00 -1.00     0.000 A 
HETATM   14  C20 HET A   1      -5.913  40.224  -0.389  1.00 -1.23     0.001 A 
HETATM   15  C18 HET A   1      -5.323  39.865   0.819  1.00 -1.59     0.009 A 
ENDBRANCH   9  10
ENDBRANCH   5   9
ENDBRANCH   1   2
BRANCH   1  16
HETATM   16  C3  HET A   1      -7.142  40.953   9.040  1.00 -2.25     0.065 A 
HETATM   17  C8  HET A   1      -5.824  40.325   9.561  1.00 -2.93     0.052 A 
HETATM   18  C10 HET A   1      -6.090  38.847   9.593  1.00  0.68    -0.041 A 
HETATM   19  C13 HET A   1      -5.245  37.860  10.086  1.00 -3.15     0.047 A 
HETATM   20  C11 HET A   1      -7.343  38.531   9.064  1.00 -2.15     0.019 A 
HETATM   21  C16 HET A   1      -5.684  36.538  10.028  1.00  2.20     0.102 A 
HETATM   22  C17 HET A   1      -6.960  36.213   9.469  1.00  1.16     0.102 A 
HETATM   23  C14 HET A   1      -7.791  37.213   8.988  1.00 -1.55     0.055 A 
HETATM   24  C9  HET A   1      -8.044  39.753   8.664  1.00  4.84     0.164 A 
HETATM   25  O1  HET A   1      -9.120  39.878   8.150  1.00 -4.36    -0.292 OA
BRANCH  21  26
HETATM   26  O2  HET A   1      -4.993  35.462  10.464  1.00 -2.48    -0.353 OA
HETATM   27  C23 HET A   1      -4.342  35.577  11.725  1.00 -2.19     0.210 C 
ENDBRANCH  21  26
BRANCH  22  28
HETATM   28  O3  HET A   1      -7.231  34.882   9.482  1.00 -2.63    -0.353 OA
HETATM   29  C24 HET A   1      -8.374  34.473  10.224  1.00 -2.14     0.210 C 
ENDBRANCH  22  28
ENDBRANCH   1  16
TORSDOF 6
ENDMDL
MODEL 20
REMARK VINA RESULT:    -7.053      6.336      9.139
REMARK INTER + INTRA:         -10.361
REMARK INTER:                  -9.348
REMARK INTRA:                  -1.013
REMARK UNBOUND:                -0.834
REMARK  6 active torsions:
REMARK  status: ('A' for Active; 'I' for Inactive)
REMARK    1  A    between atoms: O2_2  and  C16_20 
REMARK    2  A    between atoms: O3_3  and  C17_21 
REMARK    3  A    between atoms: N_4  and  C12_16 
REMARK    4  A    between atoms: C1_5  and  C2_6 
REMARK    5  A    between atoms: C2_6  and  C3_7 
REMARK    6  A    between atoms: C12_16  and  C15_19 
ROOT
HETATM    1  C2  HET A   1     -35.144  26.013 -19.427  1.00 -2.90     0.017 C 
ENDROOT
BRANCH   1   2
HETATM    2  C1  HET A   1     -34.641  24.633 -18.980  1.00 -0.95    -0.011 C 
HETATM    3  C5  HET A   1     -35.657  23.941 -18.057  1.00 -3.14     0.032 C 
HETATM    4  C7  HET A   1     -35.141  22.575 -17.617  1.00 -1.71     0.235 C 
HETATM    5  N   HET A   1     -33.828  22.736 -16.868  1.00 -1.14    -0.067 N 
HETATM    6  C6  HET A   1     -32.799  23.404 -17.766  1.00 -1.68     0.235 C 
HETATM    7  H   HET A   1     -34.001  23.347 -16.028  1.00  3.03     0.280 HD
HETATM    8  C4  HET A   1     -33.307  24.770 -18.225  1.00 -3.17     0.032 C 
BRANCH   5   9
HETATM    9  C12 HET A   1     -33.315  21.380 -16.400  1.00 -1.78     0.273 C 
BRANCH   9  10
HETATM   10  C15 HET A   1     -32.595  21.558 -15.098  1.00 -1.10    -0.033 A 
HETATM   11  C19 HET A   1     -33.061  22.480 -14.160  1.00 -1.37     0.009 A 
HETATM   12  C21 HET A   1     -32.385  22.639 -12.951  1.00 -1.27     0.001 A 
HETATM   13  C22 HET A   1     -31.247  21.879 -12.688  1.00 -1.00     0.000 A 
HETATM   14  C20 HET A   1     -30.789  20.949 -13.623  1.00 -1.23     0.001 A 
HETATM   15  C18 HET A   1     -31.464  20.783 -14.829  1.00 -1.59     0.009 A 
ENDBRANCH   9  10
ENDBRANCH   5   9
ENDBRANCH   1   2
BRANCH   1  16
HETATM   16  C3  HET A   1     -34.596  26.415 -20.795  1.00 -2.25     0.065 A 
HETATM   17  C8  HET A   1     -33.790  25.294 -21.502  1.00 -2.93     0.052 A 
HETATM   18  C10 HET A   1     -32.458  25.916 -21.808  1.00  0.68    -0.041 A 
HETATM   19  C13 HET A   1     -31.418  25.342 -22.530  1.00 -3.15     0.047 A 
HETATM   20  C11 HET A   1     -32.350  27.205 -21.282  1.00 -2.15     0.019 A 
HETATM   21  C16 HET A   1     -30.256  26.093 -22.707  1.00  2.20     0.102 A 
HETATM   22  C17 HET A   1     -30.140  27.406 -22.153  1.00  1.16     0.102 A 
HETATM   23  C14 HET A   1     -31.190  27.963 -21.440  1.00 -1.55     0.055 A 
HETATM   24  C9  HET A   1     -33.597  27.582 -20.613  1.00  4.84     0.164 A 
HETATM   25  O1  HET A   1     -33.868  28.591 -20.025  1.00 -4.36    -0.292 OA
BRANCH  21  26
HETATM   26  O2  HET A   1     -29.157  25.690 -23.383  1.00 -2.48    -0.353 OA
HETATM   27  C23 HET A   1     -29.361  24.811 -24.485  1.00 -2.19     0.210 C 
ENDBRANCH  21  26
BRANCH  22  28
HETATM   28  O3  HET A   1     -28.944  27.996 -22.411  1.00 -2.63    -0.353 OA
HETATM   29  C24 HET A   1     -28.973  29.166 -23.220  1.00 -2.14     0.210 C 
ENDBRANCH  22  28
ENDBRANCH   1  16
TORSDOF 6
ENDMDL
