@<TRIPOS>MOLECULE
chelerythrine.pdb
44 48 1 0 0
SMALL
AMBER ff14SB


@<TRIPOS>ATOM
      1 O1          0.4810    0.1940   -1.4710 O.3       1 HET   -0.3160
      2 O2          2.8430    0.1940   -1.4710 O.3       1 HET   -0.3160
      3 O3         -3.2390    8.5660   -1.4710 O.3       1 HET   -0.3459
      4 O4         -2.1080   10.8660   -0.0960 O.3       1 HET   -0.3466
      5 N          -1.0270    5.2610   -2.1490 N.ar      1 HET   -0.3086
      6 C1          0.2830    5.1270   -1.6490 C.ar      1 HET    0.0482
      7 C2          0.9430    6.2900   -1.2130 C.ar      1 HET    0.0046
      8 C3          0.9370    3.8500   -1.5680 C.ar      1 HET    0.0066
      9 C4          0.1890    7.4920   -0.9620 C.ar      1 HET   -0.0051
     10 C5         -1.1900    7.4880   -1.2850 C.ar      1 HET    0.0294
     11 C6          2.3460    3.8480   -1.4330 C.ar      1 HET   -0.0137
     12 C7         -1.7600    6.3550   -1.9240 C.ar      1 HET    0.0061
     13 C8          2.3520    6.2400   -1.0350 C.ar      1 HET   -0.0518
     14 C9          0.2150    2.6180   -1.5300 C.ar      1 HET   -0.0192
     15 C10         3.0390    5.0730   -1.2130 C.ar      1 HET   -0.0535
     16 C11         3.0940    2.6300   -1.4420 C.ar      1 HET   -0.0210
     17 C12         0.9460    1.4720   -1.5040 C.ar      1 HET    0.1090
     18 C13        -1.9690    8.6490   -1.0260 C.ar      1 HET    0.1138
     19 C14         0.7600    8.6340   -0.3760 C.ar      1 HET   -0.0509
     20 C15         2.3820    1.4740   -1.4870 C.ar      1 HET    0.1090
     21 C16        -1.6040    4.2580   -3.0600 C.3       1 HET    0.0047
     22 C17        -1.3730    9.7680   -0.4520 C.ar      1 HET    0.1054
     23 C18        -0.0090    9.7540   -0.1170 C.ar      1 HET   -0.0284
     24 C19         1.6630   -0.6490   -1.4490 C.3       1 HET    0.1585
     25 C20        -4.2510    9.1250   -0.6260 C.3       1 HET    0.0424
     26 C21        -2.1430   11.8610   -1.1240 C.3       1 HET    0.0423
     27 H7         -2.7990    6.4020   -2.3020 H         1 HET    0.0799
     28 H8          2.8850    7.1580   -0.7750 H         1 HET    0.0630
     29 H9         -0.8660    2.5890   -1.4440 H         1 HET    0.0659
     30 H10         4.1320    5.0530   -1.1440 H         1 HET    0.0630
     31 H11         4.1820    2.6490   -1.3910 H         1 HET    0.0658
     32 H14         1.8200    8.6380   -0.1090 H         1 HET    0.0631
     33 H161       -0.8110    3.6640   -3.5620 H         1 HET    0.0436
     34 H162       -2.2780    3.5640   -2.5200 H         1 HET    0.0436
     35 H163       -2.1870    4.7460   -3.8680 H         1 HET    0.0436
     36 H18         0.4250   10.6450    0.3510 H         1 HET    0.0652
     37 H191        1.6640   -1.2520   -2.3700 H         1 HET    0.0893
     38 H192        1.6640   -1.2010   -0.4960 H         1 HET    0.0893
     39 H201       -5.1680    8.7840   -1.1270 H         1 HET    0.0536
     40 H202       -4.1940   10.2190   -0.6220 H         1 HET    0.0536
     41 H203       -4.1770    8.7240    0.3890 H         1 HET    0.0536
     42 H211       -2.7530   12.6490   -0.6590 H         1 HET    0.0536
     43 H212       -2.6210   11.4740   -2.0280 H         1 HET    0.0536
     44 H213       -1.1350   12.2300   -1.3370 H         1 HET    0.0536
@<TRIPOS>BOND
     1    1   17 1
     2    1   24 1
     3    2   20 1
     4    2   24 1
     5    3   18 1
     6    3   25 1
     7    4   22 1
     8    4   26 1
     9    5    6 ar
    10    5   12 ar
    11    5   21 1
    12    6    7 ar
    13    6    8 ar
    14    7    9 ar
    15    7   13 ar
    16    8   11 ar
    17    8   14 ar
    18    9   10 ar
    19    9   19 ar
    20   10   12 ar
    21   10   18 ar
    22   11   15 ar
    23   11   16 ar
    24   12   27 1
    25   13   15 ar
    26   13   28 1
    27   14   17 ar
    28   14   29 1
    29   15   30 1
    30   16   20 ar
    31   16   31 1
    32   17   20 ar
    33   18   22 ar
    34   19   23 ar
    35   19   32 1
    36   21   33 1
    37   21   34 1
    38   21   35 1
    39   22   23 ar
    40   23   36 1
    41   24   37 1
    42   24   38 1
    43   25   39 1
    44   25   40 1
    45   25   41 1
    46   26   42 1
    47   26   43 1
    48   26   44 1
@<TRIPOS>SUBSTRUCTURE
     1 HET     1 RESIDUE           4 A     HET     0 ROOT
