MODEL 1
REMARK VINA RESULT:    -8.506      0.000      0.000
REMARK INTER + INTRA:         -12.243
REMARK INTER:                 -11.490
REMARK INTRA:                  -0.753
REMARK UNBOUND:                -0.753
REMARK  6 active torsions:
REMARK  status: ('A' for Active; 'I' for Inactive)
REMARK    1  A    between atoms: O2_2  and  C16_20 
REMARK    2  A    between atoms: O3_3  and  C17_21 
REMARK    3  A    between atoms: N_4  and  C12_16 
REMARK    4  A    between atoms: C1_5  and  C2_6 
REMARK    5  A    between atoms: C2_6  and  C3_7 
REMARK    6  A    between atoms: C12_16  and  C15_19 
ROOT
HETATM    1  C2  HET A   1     -30.264  23.724 -12.016  1.00 -2.90     0.017 C 
ENDROOT
BRANCH   1   2
HETATM    2  C1  HET A   1     -29.088  22.999 -11.348  1.00 -0.95    -0.011 C 
HETATM    3  C5  HET A   1     -28.940  23.416  -9.875  1.00 -3.14     0.032 C 
HETATM    4  C7  HET A   1     -27.764  22.692  -9.227  1.00 -1.71     0.235 C 
HETATM    5  N   HET A   1     -26.479  23.031  -9.964  1.00 -1.14    -0.067 N 
HETATM    6  C6  HET A   1     -26.593  22.614 -11.422  1.00 -1.68     0.235 C 
HETATM    7  H   HET A   1     -26.336  24.073  -9.915  1.00  3.03     0.280 HD
HETATM    8  C4  HET A   1     -27.775  23.322 -12.083  1.00 -3.17     0.032 C 
BRANCH   5   9
HETATM    9  C12 HET A   1     -25.293  22.335  -9.309  1.00 -1.78     0.273 C 
BRANCH   9  10
HETATM   10  C15 HET A   1     -24.721  23.237  -8.259  1.00 -1.10    -0.033 A 
HETATM   11  C19 HET A   1     -24.457  22.746  -6.980  1.00 -1.37     0.009 A 
HETATM   12  C21 HET A   1     -23.925  23.593  -6.010  1.00 -1.27     0.001 A 
HETATM   13  C22 HET A   1     -23.662  24.926  -6.321  1.00 -1.00     0.000 A 
HETATM   14  C20 HET A   1     -23.916  25.412  -7.604  1.00 -1.23     0.001 A 
HETATM   15  C18 HET A   1     -24.442  24.569  -8.579  1.00 -1.59     0.009 A 
ENDBRANCH   9  10
ENDBRANCH   5   9
ENDBRANCH   1   2
BRANCH   1  16
HETATM   16  C3  HET A   1     -31.545  22.892 -11.998  1.00 -2.25     0.065 A 
HETATM   17  C8  HET A   1     -31.604  21.809 -13.107  1.00 -2.93     0.052 A 
HETATM   18  C10 HET A   1     -32.885  22.084 -13.842  1.00  0.68    -0.041 A 
HETATM   19  C13 HET A   1     -33.439  21.320 -14.863  1.00 -3.15     0.047 A 
HETATM   20  C11 HET A   1     -33.517  23.238 -13.375  1.00 -2.15     0.019 A 
HETATM   21  C16 HET A   1     -34.646  21.748 -15.414  1.00  2.20     0.102 A 
HETATM   22  C17 HET A   1     -35.284  22.940 -14.948  1.00  1.16     0.102 A 
HETATM   23  C14 HET A   1     -34.718  23.685 -13.925  1.00 -1.55     0.055 A 
HETATM   24  C9  HET A   1     -32.751  23.821 -12.272  1.00  4.84     0.164 A 
HETATM   25  O1  HET A   1     -32.964  24.820 -11.644  1.00 -4.36    -0.292 OA
BRANCH  21  26
HETATM   26  O2  HET A   1     -35.320  21.124 -16.406  1.00 -2.48    -0.353 OA
HETATM   27  C23 HET A   1     -34.845  19.842 -16.805  1.00 -2.19     0.210 C 
ENDBRANCH  21  26
BRANCH  22  28
HETATM   28  O3  HET A   1     -36.446  23.218 -15.594  1.00 -2.63    -0.353 OA
HETATM   29  C24 HET A   1     -37.617  23.303 -14.791  1.00 -2.14     0.210 C 
ENDBRANCH  22  28
ENDBRANCH   1  16
TORSDOF 6
ENDMDL
MODEL 2
REMARK VINA RESULT:    -8.365      4.647     10.866
REMARK INTER + INTRA:         -12.052
REMARK INTER:                 -11.184
REMARK INTRA:                  -0.868
REMARK UNBOUND:                -0.753
REMARK  6 active torsions:
REMARK  status: ('A' for Active; 'I' for Inactive)
REMARK    1  A    between atoms: O2_2  and  C16_20 
REMARK    2  A    between atoms: O3_3  and  C17_21 
REMARK    3  A    between atoms: N_4  and  C12_16 
REMARK    4  A    between atoms: C1_5  and  C2_6 
REMARK    5  A    between atoms: C2_6  and  C3_7 
REMARK    6  A    between atoms: C12_16  and  C15_19 
ROOT
HETATM    1  C2  HET A   1     -34.024  21.115 -17.479  1.00 -2.90     0.017 C 
ENDROOT
BRANCH   1   2
HETATM    2  C1  HET A   1     -34.285  19.856 -18.317  1.00 -0.95    -0.011 C 
HETATM    3  C5  HET A   1     -34.921  18.742 -17.467  1.00 -3.14     0.032 C 
HETATM    4  C7  HET A   1     -35.168  17.497 -18.311  1.00 -1.71     0.235 C 
HETATM    5  N   HET A   1     -33.854  16.989 -18.881  1.00 -1.14    -0.067 N 
HETATM    6  C6  HET A   1     -33.212  18.067 -19.740  1.00 -1.68     0.235 C 
HETATM    7  H   HET A   1     -33.212  16.763 -18.078  1.00  3.03     0.280 HD
HETATM    8  C4  HET A   1     -32.968  19.328 -18.911  1.00 -3.17     0.032 C 
BRANCH   5   9
HETATM    9  C12 HET A   1     -34.084  15.729 -19.705  1.00 -1.78     0.273 C 
BRANCH   9  10
HETATM   10  C15 HET A   1     -33.274  14.613 -19.119  1.00 -1.10    -0.033 A 
HETATM   11  C19 HET A   1     -32.020  14.305 -19.647  1.00 -1.37     0.009 A 
HETATM   12  C21 HET A   1     -31.274  13.265 -19.095  1.00 -1.27     0.001 A 
HETATM   13  C22 HET A   1     -31.785  12.538 -18.022  1.00 -1.00     0.000 A 
HETATM   14  C20 HET A   1     -33.035  12.855 -17.488  1.00 -1.23     0.001 A 
HETATM   15  C18 HET A   1     -33.781  13.896 -18.032  1.00 -1.59     0.009 A 
ENDBRANCH   9  10
ENDBRANCH   5   9
ENDBRANCH   1   2
BRANCH   1  16
HETATM   16  C3  HET A   1     -34.143  20.850 -15.980  1.00 -2.25     0.065 A 
HETATM   17  C8  HET A   1     -34.822  22.001 -15.192  1.00 -2.93     0.052 A 
HETATM   18  C10 HET A   1     -33.836  22.362 -14.117  1.00  0.68    -0.041 A 
HETATM   19  C13 HET A   1     -34.027  23.275 -13.086  1.00 -3.15     0.047 A 
HETATM   20  C11 HET A   1     -32.642  21.650 -14.243  1.00 -2.15     0.019 A 
HETATM   21  C16 HET A   1     -32.982  23.465 -12.183  1.00  2.20     0.102 A 
HETATM   22  C17 HET A   1     -31.752  22.748 -12.324  1.00  1.16     0.102 A 
HETATM   23  C14 HET A   1     -31.584  21.837 -13.355  1.00 -1.55     0.055 A 
HETATM   24  C9  HET A   1     -32.723  20.727 -15.377  1.00  4.84     0.164 A 
HETATM   25  O1  HET A   1     -31.891  19.979 -15.809  1.00 -4.36    -0.292 OA
BRANCH  21  26
HETATM   26  O2  HET A   1     -33.001  24.306 -11.126  1.00 -2.48    -0.353 OA
HETATM   27  C23 HET A   1     -33.120  25.697 -11.408  1.00 -2.19     0.210 C 
ENDBRANCH  21  26
BRANCH  22  28
HETATM   28  O3  HET A   1     -30.838  23.053 -11.366  1.00 -2.63    -0.353 OA
HETATM   29  C24 HET A   1     -29.657  23.717 -11.802  1.00 -2.14     0.210 C 
ENDBRANCH  22  28
ENDBRANCH   1  16
TORSDOF 6
ENDMDL
MODEL 3
REMARK VINA RESULT:    -8.333      5.167     10.194
REMARK INTER + INTRA:         -12.009
REMARK INTER:                 -10.832
REMARK INTRA:                  -1.177
REMARK UNBOUND:                -0.753
REMARK  6 active torsions:
REMARK  status: ('A' for Active; 'I' for Inactive)
REMARK    1  A    between atoms: O2_2  and  C16_20 
REMARK    2  A    between atoms: O3_3  and  C17_21 
REMARK    3  A    between atoms: N_4  and  C12_16 
REMARK    4  A    between atoms: C1_5  and  C2_6 
REMARK    5  A    between atoms: C2_6  and  C3_7 
REMARK    6  A    between atoms: C12_16  and  C15_19 
ROOT
HETATM    1  C2  HET A   1     -34.378  21.098 -17.208  1.00 -2.90     0.017 C 
ENDROOT
BRANCH   1   2
HETATM    2  C1  HET A   1     -34.237  22.569 -17.623  1.00 -0.95    -0.011 C 
HETATM    3  C5  HET A   1     -35.063  22.874 -18.884  1.00 -3.14     0.032 C 
HETATM    4  C7  HET A   1     -34.908  24.337 -19.287  1.00 -1.71     0.235 C 
HETATM    5  N   HET A   1     -33.447  24.642 -19.572  1.00 -1.14    -0.067 N 
HETATM    6  C6  HET A   1     -32.608  24.363 -18.334  1.00 -1.68     0.235 C 
HETATM    7  H   HET A   1     -33.126  24.013 -20.353  1.00  3.03     0.280 HD
HETATM    8  C4  HET A   1     -32.763  22.903 -17.910  1.00 -3.17     0.032 C 
BRANCH   5   9
HETATM    9  C12 HET A   1     -33.282  26.094 -20.002  1.00 -1.78     0.273 C 
BRANCH   9  10
HETATM   10  C15 HET A   1     -32.178  26.178 -21.012  1.00 -1.10    -0.033 A 
HETATM   11  C19 HET A   1     -31.960  25.125 -21.901  1.00 -1.37     0.009 A 
HETATM   12  C21 HET A   1     -30.931  25.212 -22.837  1.00 -1.27     0.001 A 
HETATM   13  C22 HET A   1     -30.125  26.348 -22.878  1.00 -1.00     0.000 A 
HETATM   14  C20 HET A   1     -30.352  27.404 -21.995  1.00 -1.23     0.001 A 
HETATM   15  C18 HET A   1     -31.382  27.325 -21.063  1.00 -1.59     0.009 A 
ENDBRANCH   9  10
ENDBRANCH   5   9
ENDBRANCH   1   2
BRANCH   1  16
HETATM   16  C3  HET A   1     -34.412  20.923 -15.691  1.00 -2.25     0.065 A 
HETATM   17  C8  HET A   1     -34.908  22.179 -14.927  1.00 -2.93     0.052 A 
HETATM   18  C10 HET A   1     -33.813  22.486 -13.945  1.00  0.68    -0.041 A 
HETATM   19  C13 HET A   1     -33.831  23.465 -12.958  1.00 -3.15     0.047 A 
HETATM   20  C11 HET A   1     -32.712  21.644 -14.110  1.00 -2.15     0.019 A 
HETATM   21  C16 HET A   1     -32.707  23.587 -12.141  1.00  2.20     0.102 A 
HETATM   22  C17 HET A   1     -31.573  22.735 -12.324  1.00  1.16     0.102 A 
HETATM   23  C14 HET A   1     -31.577  21.761 -13.309  1.00 -1.55     0.055 A 
HETATM   24  C9  HET A   1     -32.972  20.679 -15.181  1.00  4.84     0.164 A 
HETATM   25  O1  HET A   1     -32.257  19.824 -15.623  1.00 -4.36    -0.292 OA
BRANCH  21  26
HETATM   26  O2  HET A   1     -32.561  24.478 -11.137  1.00 -2.48    -0.353 OA
HETATM   27  C23 HET A   1     -32.728  25.855 -11.462  1.00 -2.19     0.210 C 
ENDBRANCH  21  26
BRANCH  22  28
HETATM   28  O3  HET A   1     -30.563  22.989 -11.451  1.00 -2.63    -0.353 OA
HETATM   29  C24 HET A   1     -29.390  23.586 -11.990  1.00 -2.14     0.210 C 
ENDBRANCH  22  28
ENDBRANCH   1  16
TORSDOF 6
ENDMDL
MODEL 4
REMARK VINA RESULT:    -8.257      5.366     10.745
REMARK INTER + INTRA:         -11.906
REMARK INTER:                 -11.032
REMARK INTRA:                  -0.874
REMARK UNBOUND:                -0.753
REMARK  6 active torsions:
REMARK  status: ('A' for Active; 'I' for Inactive)
REMARK    1  A    between atoms: O2_2  and  C16_20 
REMARK    2  A    between atoms: O3_3  and  C17_21 
REMARK    3  A    between atoms: N_4  and  C12_16 
REMARK    4  A    between atoms: C1_5  and  C2_6 
REMARK    5  A    between atoms: C2_6  and  C3_7 
REMARK    6  A    between atoms: C12_16  and  C15_19 
ROOT
HETATM    1  C2  HET A   1     -34.053  20.140 -17.991  1.00 -2.90     0.017 C 
ENDROOT
BRANCH   1   2
HETATM    2  C1  HET A   1     -34.127  18.758 -18.654  1.00 -0.95    -0.011 C 
HETATM    3  C5  HET A   1     -34.247  17.641 -17.603  1.00 -3.14     0.032 C 
HETATM    4  C7  HET A   1     -34.313  16.274 -18.277  1.00 -1.71     0.235 C 
HETATM    5  N   HET A   1     -33.057  16.041 -19.099  1.00 -1.14    -0.067 N 
HETATM    6  C6  HET A   1     -32.923  17.125 -20.158  1.00 -1.68     0.235 C 
HETATM    7  H   HET A   1     -32.227  16.088 -18.453  1.00  3.03     0.280 HD
HETATM    8  C4  HET A   1     -32.867  18.503 -19.499  1.00 -3.17     0.032 C 
BRANCH   5   9
HETATM    9  C12 HET A   1     -33.100  14.668 -19.756  1.00 -1.78     0.273 C 
BRANCH   9  10
HETATM   10  C15 HET A   1     -32.184  13.746 -19.009  1.00 -1.10    -0.033 A 
HETATM   11  C19 HET A   1     -30.834  13.670 -19.353  1.00 -1.37     0.009 A 
HETATM   12  C21 HET A   1     -29.990  12.809 -18.653  1.00 -1.27     0.001 A 
HETATM   13  C22 HET A   1     -30.498  12.029 -17.617  1.00 -1.00     0.000 A 
HETATM   14  C20 HET A   1     -31.847  12.116 -17.267  1.00 -1.23     0.001 A 
HETATM   15  C18 HET A   1     -32.693  12.977 -17.959  1.00 -1.59     0.009 A 
ENDBRANCH   9  10
ENDBRANCH   5   9
ENDBRANCH   1   2
BRANCH   1  16
HETATM   16  C3  HET A   1     -34.322  20.078 -16.488  1.00 -2.25     0.065 A 
HETATM   17  C8  HET A   1     -35.412  21.070 -16.006  1.00 -2.93     0.052 A 
HETATM   18  C10 HET A   1     -34.749  21.872 -14.923  1.00  0.68    -0.041 A 
HETATM   19  C13 HET A   1     -35.347  22.826 -14.108  1.00 -3.15     0.047 A 
HETATM   20  C11 HET A   1     -33.397  21.550 -14.789  1.00 -2.15     0.019 A 
HETATM   21  C16 HET A   1     -34.551  23.460 -13.154  1.00  2.20     0.102 A 
HETATM   22  C17 HET A   1     -33.163  23.142 -13.030  1.00  1.16     0.102 A 
HETATM   23  C14 HET A   1     -32.586  22.183 -13.848  1.00 -1.55     0.055 A 
HETATM   24  C9  HET A   1     -33.036  20.488 -15.731  1.00  4.84     0.164 A 
HETATM   25  O1  HET A   1     -31.970  19.975 -15.925  1.00 -4.36    -0.292 OA
BRANCH  21  26
HETATM   26  O2  HET A   1     -34.973  24.403 -12.283  1.00 -2.48    -0.353 OA
HETATM   27  C23 HET A   1     -35.979  24.021 -11.351  1.00 -2.19     0.210 C 
ENDBRANCH  21  26
BRANCH  22  28
HETATM   28  O3  HET A   1     -32.532  23.852 -12.059  1.00 -2.63    -0.353 OA
HETATM   29  C24 HET A   1     -31.856  23.101 -11.058  1.00 -2.14     0.210 C 
ENDBRANCH  22  28
ENDBRANCH   1  16
TORSDOF 6
ENDMDL
MODEL 5
REMARK VINA RESULT:    -8.051      2.007      3.739
REMARK INTER + INTRA:         -11.628
REMARK INTER:                 -10.851
REMARK INTRA:                  -0.777
REMARK UNBOUND:                -0.753
REMARK  6 active torsions:
REMARK  status: ('A' for Active; 'I' for Inactive)
REMARK    1  A    between atoms: O2_2  and  C16_20 
REMARK    2  A    between atoms: O3_3  and  C17_21 
REMARK    3  A    between atoms: N_4  and  C12_16 
REMARK    4  A    between atoms: C1_5  and  C2_6 
REMARK    5  A    between atoms: C2_6  and  C3_7 
REMARK    6  A    between atoms: C12_16  and  C15_19 
ROOT
HETATM    1  C2  HET A   1     -32.236  21.829 -13.174  1.00 -2.90     0.017 C 
ENDROOT
BRANCH   1   2
HETATM    2  C1  HET A   1     -30.755  22.214 -13.291  1.00 -0.95    -0.011 C 
HETATM    3  C5  HET A   1     -29.858  20.967 -13.360  1.00 -3.14     0.032 C 
HETATM    4  C7  HET A   1     -28.390  21.366 -13.470  1.00 -1.71     0.235 C 
HETATM    5  N   HET A   1     -27.987  22.195 -12.261  1.00 -1.14    -0.067 N 
HETATM    6  C6  HET A   1     -28.850  23.444 -12.179  1.00 -1.68     0.235 C 
HETATM    7  H   HET A   1     -28.142  21.613 -11.397  1.00  3.03     0.280 HD
HETATM    8  C4  HET A   1     -30.327  23.061 -12.080  1.00 -3.17     0.032 C 
BRANCH   5   9
HETATM    9  C12 HET A   1     -26.516  22.577 -12.346  1.00 -1.78     0.273 C 
BRANCH   9  10
HETATM   10  C15 HET A   1     -25.947  22.624 -10.961  1.00 -1.10    -0.033 A 
HETATM   11  C19 HET A   1     -25.241  23.749 -10.531  1.00 -1.37     0.009 A 
HETATM   12  C21 HET A   1     -24.716  23.783  -9.240  1.00 -1.27     0.001 A 
HETATM   13  C22 HET A   1     -24.896  22.696  -8.388  1.00 -1.00     0.000 A 
HETATM   14  C20 HET A   1     -25.612  21.577  -8.816  1.00 -1.23     0.001 A 
HETATM   15  C18 HET A   1     -26.144  21.540 -10.102  1.00 -1.59     0.009 A 
ENDBRANCH   9  10
ENDBRANCH   5   9
ENDBRANCH   1   2
BRANCH   1  16
HETATM   16  C3  HET A   1     -33.081  22.419 -14.302  1.00 -2.25     0.065 A 
HETATM   17  C8  HET A   1     -34.280  23.269 -13.807  1.00 -2.93     0.052 A 
HETATM   18  C10 HET A   1     -35.482  22.657 -14.468  1.00  0.68    -0.041 A 
HETATM   19  C13 HET A   1     -36.789  23.127 -14.419  1.00 -3.15     0.047 A 
HETATM   20  C11 HET A   1     -35.152  21.509 -15.191  1.00 -2.15     0.019 A 
HETATM   21  C16 HET A   1     -37.766  22.410 -15.110  1.00  2.20     0.102 A 
HETATM   22  C17 HET A   1     -37.429  21.224 -15.835  1.00  1.16     0.102 A 
HETATM   23  C14 HET A   1     -36.119  20.774 -15.876  1.00 -1.55     0.055 A 
HETATM   24  C9  HET A   1     -33.710  21.263 -15.116  1.00  4.84     0.164 A 
HETATM   25  O1  HET A   1     -33.067  20.366 -15.583  1.00 -4.36    -0.292 OA
BRANCH  21  26
HETATM   26  O2  HET A   1     -39.077  22.730 -15.169  1.00 -2.48    -0.353 OA
HETATM   27  C23 HET A   1     -39.718  23.072 -13.944  1.00 -2.19     0.210 C 
ENDBRANCH  21  26
BRANCH  22  28
HETATM   28  O3  HET A   1     -38.496  20.645 -16.444  1.00 -2.63    -0.353 OA
HETATM   29  C24 HET A   1     -38.335  19.294 -16.860  1.00 -2.14     0.210 C 
ENDBRANCH  22  28
ENDBRANCH   1  16
TORSDOF 6
ENDMDL
MODEL 6
REMARK VINA RESULT:    -8.031      5.250      9.975
REMARK INTER + INTRA:         -11.601
REMARK INTER:                 -10.510
REMARK INTRA:                  -1.091
REMARK UNBOUND:                -0.753
REMARK  6 active torsions:
REMARK  status: ('A' for Active; 'I' for Inactive)
REMARK    1  A    between atoms: O2_2  and  C16_20 
REMARK    2  A    between atoms: O3_3  and  C17_21 
REMARK    3  A    between atoms: N_4  and  C12_16 
REMARK    4  A    between atoms: C1_5  and  C2_6 
REMARK    5  A    between atoms: C2_6  and  C3_7 
REMARK    6  A    between atoms: C12_16  and  C15_19 
ROOT
HETATM    1  C2  HET A   1     -32.383  20.463 -17.090  1.00 -2.90     0.017 C 
ENDROOT
BRANCH   1   2
HETATM    2  C1  HET A   1     -32.996  21.645 -17.853  1.00 -0.95    -0.011 C 
HETATM    3  C5  HET A   1     -33.088  21.350 -19.359  1.00 -3.14     0.032 C 
HETATM    4  C7  HET A   1     -33.693  22.536 -20.104  1.00 -1.71     0.235 C 
HETATM    5  N   HET A   1     -32.830  23.770 -19.898  1.00 -1.14    -0.067 N 
HETATM    6  C6  HET A   1     -32.735  24.094 -18.415  1.00 -1.68     0.235 C 
HETATM    7  H   HET A   1     -31.866  23.562 -20.267  1.00  3.03     0.280 HD
HETATM    8  C4  HET A   1     -32.142  22.910 -17.653  1.00 -3.17     0.032 C 
BRANCH   5   9
HETATM    9  C12 HET A   1     -33.409  24.955 -20.659  1.00 -1.78     0.273 C 
BRANCH   9  10
HETATM   10  C15 HET A   1     -32.291  25.696 -21.325  1.00 -1.10    -0.033 A 
HETATM   11  C19 HET A   1     -32.012  27.015 -20.965  1.00 -1.37     0.009 A 
HETATM   12  C21 HET A   1     -30.969  27.697 -21.590  1.00 -1.27     0.001 A 
HETATM   13  C22 HET A   1     -30.213  27.059 -22.571  1.00 -1.00     0.000 A 
HETATM   14  C20 HET A   1     -30.486  25.736 -22.921  1.00 -1.23     0.001 A 
HETATM   15  C18 HET A   1     -31.522  25.049 -22.296  1.00 -1.59     0.009 A 
ENDBRANCH   9  10
ENDBRANCH   5   9
ENDBRANCH   1   2
BRANCH   1  16
HETATM   16  C3  HET A   1     -32.902  20.365 -15.657  1.00 -2.25     0.065 A 
HETATM   17  C8  HET A   1     -34.220  21.146 -15.413  1.00 -2.93     0.052 A 
HETATM   18  C10 HET A   1     -33.914  22.064 -14.264  1.00  0.68    -0.041 A 
HETATM   19  C13 HET A   1     -34.809  22.899 -13.605  1.00 -3.15     0.047 A 
HETATM   20  C11 HET A   1     -32.573  21.993 -13.882  1.00 -2.15     0.019 A 
HETATM   21  C16 HET A   1     -34.323  23.674 -12.553  1.00  2.20     0.102 A 
HETATM   22  C17 HET A   1     -32.944  23.615 -12.175  1.00  1.16     0.102 A 
HETATM   23  C14 HET A   1     -32.069  22.771 -12.840  1.00 -1.55     0.055 A 
HETATM   24  C9  HET A   1     -31.867  21.007 -14.703  1.00  4.84     0.164 A 
HETATM   25  O1  HET A   1     -30.709  20.695 -14.687  1.00 -4.36    -0.292 OA
BRANCH  21  26
HETATM   26  O2  HET A   1     -35.054  24.532 -11.808  1.00 -2.48    -0.353 OA
HETATM   27  C23 HET A   1     -36.290  24.050 -11.291  1.00 -2.19     0.210 C 
ENDBRANCH  21  26
BRANCH  22  28
HETATM   28  O3  HET A   1     -32.635  24.436 -11.138  1.00 -2.63    -0.353 OA
HETATM   29  C24 HET A   1     -31.403  25.141 -11.230  1.00 -2.14     0.210 C 
ENDBRANCH  22  28
ENDBRANCH   1  16
TORSDOF 6
ENDMDL
MODEL 7
REMARK VINA RESULT:    -7.995      4.967     12.681
REMARK INTER + INTRA:         -11.552
REMARK INTER:                 -10.838
REMARK INTRA:                  -0.714
REMARK UNBOUND:                -0.753
REMARK  6 active torsions:
REMARK  status: ('A' for Active; 'I' for Inactive)
REMARK    1  A    between atoms: O2_2  and  C16_20 
REMARK    2  A    between atoms: O3_3  and  C17_21 
REMARK    3  A    between atoms: N_4  and  C12_16 
REMARK    4  A    between atoms: C1_5  and  C2_6 
REMARK    5  A    between atoms: C2_6  and  C3_7 
REMARK    6  A    between atoms: C12_16  and  C15_19 
ROOT
HETATM    1  C2  HET A   1     -37.053  22.640 -13.813  1.00 -2.90     0.017 C 
ENDROOT
BRANCH   1   2
HETATM    2  C1  HET A   1     -37.888  22.226 -15.032  1.00 -0.95    -0.011 C 
HETATM    3  C5  HET A   1     -39.343  22.708 -14.901  1.00 -3.14     0.032 C 
HETATM    4  C7  HET A   1     -40.161  22.284 -16.116  1.00 -1.71     0.235 C 
HETATM    5  N   HET A   1     -40.156  20.769 -16.241  1.00 -1.14    -0.067 N 
HETATM    6  C6  HET A   1     -38.728  20.268 -16.389  1.00 -1.68     0.235 C 
HETATM    7  H   HET A   1     -40.573  20.365 -15.363  1.00  3.03     0.280 HD
HETATM    8  C4  HET A   1     -37.891  20.695 -15.183  1.00 -3.17     0.032 C 
BRANCH   5   9
HETATM    9  C12 HET A   1     -40.992  20.332 -17.436  1.00 -1.78     0.273 C 
BRANCH   9  10
HETATM   10  C15 HET A   1     -42.130  19.488 -16.948  1.00 -1.10    -0.033 A 
HETATM   11  C19 HET A   1     -42.880  18.733 -17.850  1.00 -1.37     0.009 A 
HETATM   12  C21 HET A   1     -43.937  17.951 -17.386  1.00 -1.27     0.001 A 
HETATM   13  C22 HET A   1     -44.239  17.929 -16.026  1.00 -1.00     0.000 A 
HETATM   14  C20 HET A   1     -43.481  18.677 -15.125  1.00 -1.23     0.001 A 
HETATM   15  C18 HET A   1     -42.421  19.455 -15.582  1.00 -1.59     0.009 A 
ENDBRANCH   9  10
ENDBRANCH   5   9
ENDBRANCH   1   2
BRANCH   1  16
HETATM   16  C3  HET A   1     -35.701  23.232 -14.209  1.00 -2.25     0.065 A 
HETATM   17  C8  HET A   1     -34.677  22.179 -14.708  1.00 -2.93     0.052 A 
HETATM   18  C10 HET A   1     -33.472  22.374 -13.834  1.00  0.68    -0.041 A 
HETATM   19  C13 HET A   1     -32.244  21.733 -13.954  1.00 -3.15     0.047 A 
HETATM   20  C11 HET A   1     -33.699  23.322 -12.834  1.00 -2.15     0.019 A 
HETATM   21  C16 HET A   1     -31.246  22.061 -13.037  1.00  2.20     0.102 A 
HETATM   22  C17 HET A   1     -31.486  23.019 -12.003  1.00  1.16     0.102 A 
HETATM   23  C14 HET A   1     -32.715  23.652 -11.904  1.00 -1.55     0.055 A 
HETATM   24  C9  HET A   1     -35.050  23.874 -12.962  1.00  4.84     0.164 A 
HETATM   25  O1  HET A   1     -35.608  24.683 -12.275  1.00 -4.36    -0.292 OA
BRANCH  21  26
HETATM   26  O2  HET A   1     -30.000  21.538 -13.014  1.00 -2.48    -0.353 OA
HETATM   27  C23 HET A   1     -29.547  20.890 -14.199  1.00 -2.19     0.210 C 
ENDBRANCH  21  26
BRANCH  22  28
HETATM   28  O3  HET A   1     -30.414  23.218 -11.193  1.00 -2.63    -0.353 OA
HETATM   29  C24 HET A   1     -30.654  23.919  -9.979  1.00 -2.14     0.210 C 
ENDBRANCH  22  28
ENDBRANCH   1  16
TORSDOF 6
ENDMDL
MODEL 8
REMARK VINA RESULT:    -7.911     16.169     18.290
REMARK INTER + INTRA:         -11.439
REMARK INTER:                 -10.542
REMARK INTRA:                  -0.897
REMARK UNBOUND:                -0.753
REMARK  6 active torsions:
REMARK  status: ('A' for Active; 'I' for Inactive)
REMARK    1  A    between atoms: O2_2  and  C16_20 
REMARK    2  A    between atoms: O3_3  and  C17_21 
REMARK    3  A    between atoms: N_4  and  C12_16 
REMARK    4  A    between atoms: C1_5  and  C2_6 
REMARK    5  A    between atoms: C2_6  and  C3_7 
REMARK    6  A    between atoms: C12_16  and  C15_19 
ROOT
HETATM    1  C2  HET A   1     -45.372  28.710  -1.440  1.00 -2.90     0.017 C 
ENDROOT
BRANCH   1   2
HETATM    2  C1  HET A   1     -45.187  30.039  -0.696  1.00 -0.95    -0.011 C 
HETATM    3  C5  HET A   1     -44.206  30.963  -1.439  1.00 -3.14     0.032 C 
HETATM    4  C7  HET A   1     -44.028  32.276  -0.684  1.00 -1.71     0.235 C 
HETATM    5  N   HET A   1     -43.485  32.003   0.709  1.00 -1.14    -0.067 N 
HETATM    6  C6  HET A   1     -44.446  31.104   1.471  1.00 -1.68     0.235 C 
HETATM    7  H   HET A   1     -42.560  31.511   0.610  1.00  3.03     0.280 HD
HETATM    8  C4  HET A   1     -44.644  29.787   0.721  1.00 -3.17     0.032 C 
BRANCH   5   9
HETATM    9  C12 HET A   1     -43.278  33.310   1.463  1.00 -1.78     0.273 C 
BRANCH   9  10
HETATM   10  C15 HET A   1     -41.946  33.267   2.147  1.00 -1.10    -0.033 A 
HETATM   11  C19 HET A   1     -40.775  33.469   1.415  1.00 -1.37     0.009 A 
HETATM   12  C21 HET A   1     -39.540  33.428   2.061  1.00 -1.27     0.001 A 
HETATM   13  C22 HET A   1     -39.481  33.184   3.431  1.00 -1.00     0.000 A 
HETATM   14  C20 HET A   1     -40.654  32.993   4.163  1.00 -1.23     0.001 A 
HETATM   15  C18 HET A   1     -41.890  33.039   3.525  1.00 -1.59     0.009 A 
ENDBRANCH   9  10
ENDBRANCH   5   9
ENDBRANCH   1   2
BRANCH   1  16
HETATM   16  C3  HET A   1     -44.156  28.346  -2.290  1.00 -2.25     0.065 A 
HETATM   17  C8  HET A   1     -44.491  28.071  -3.779  1.00 -2.93     0.052 A 
HETATM   18  C10 HET A   1     -43.940  26.700  -4.049  1.00  0.68    -0.041 A 
HETATM   19  C13 HET A   1     -43.901  26.045  -5.274  1.00 -3.15     0.047 A 
HETATM   20  C11 HET A   1     -43.427  26.107  -2.894  1.00 -2.15     0.019 A 
HETATM   21  C16 HET A   1     -43.340  24.769  -5.313  1.00  2.20     0.102 A 
HETATM   22  C17 HET A   1     -42.832  24.155  -4.126  1.00  1.16     0.102 A 
HETATM   23  C14 HET A   1     -42.874  24.827  -2.914  1.00 -1.55     0.055 A 
HETATM   24  C9  HET A   1     -43.550  27.025  -1.759  1.00  4.84     0.164 A 
HETATM   25  O1  HET A   1     -43.248  26.858  -0.611  1.00 -4.36    -0.292 OA
BRANCH  21  26
HETATM   26  O2  HET A   1     -43.220  23.999  -6.417  1.00 -2.48    -0.353 OA
HETATM   27  C23 HET A   1     -43.407  24.637  -7.676  1.00 -2.19     0.210 C 
ENDBRANCH  21  26
BRANCH  22  28
HETATM   28  O3  HET A   1     -42.326  22.912  -4.336  1.00 -2.63    -0.353 OA
HETATM   29  C24 HET A   1     -41.109  22.598  -3.670  1.00 -2.14     0.210 C 
ENDBRANCH  22  28
ENDBRANCH   1  16
TORSDOF 6
ENDMDL
MODEL 9
REMARK VINA RESULT:    -7.829      4.546     10.880
REMARK INTER + INTRA:         -11.328
REMARK INTER:                 -11.086
REMARK INTRA:                  -0.242
REMARK UNBOUND:                -0.753
REMARK  6 active torsions:
REMARK  status: ('A' for Active; 'I' for Inactive)
REMARK    1  A    between atoms: O2_2  and  C16_20 
REMARK    2  A    between atoms: O3_3  and  C17_21 
REMARK    3  A    between atoms: N_4  and  C12_16 
REMARK    4  A    between atoms: C1_5  and  C2_6 
REMARK    5  A    between atoms: C2_6  and  C3_7 
REMARK    6  A    between atoms: C12_16  and  C15_19 
ROOT
HETATM    1  C2  HET A   1     -35.367  20.317 -16.385  1.00 -2.90     0.017 C 
ENDROOT
BRANCH   1   2
HETATM    2  C1  HET A   1     -35.059  19.380 -17.562  1.00 -0.95    -0.011 C 
HETATM    3  C5  HET A   1     -36.275  18.506 -17.913  1.00 -3.14     0.032 C 
HETATM    4  C7  HET A   1     -35.952  17.578 -19.078  1.00 -1.71     0.235 C 
HETATM    5  N   HET A   1     -34.788  16.673 -18.711  1.00 -1.14    -0.067 N 
HETATM    6  C6  HET A   1     -33.565  17.513 -18.375  1.00 -1.68     0.235 C 
HETATM    7  H   HET A   1     -35.062  16.111 -17.864  1.00  3.03     0.280 HD
HETATM    8  C4  HET A   1     -33.877  18.458 -17.215  1.00 -3.17     0.032 C 
BRANCH   5   9
HETATM    9  C12 HET A   1     -34.472  15.722 -19.859  1.00 -1.78     0.273 C 
BRANCH   9  10
HETATM   10  C15 HET A   1     -33.504  14.686 -19.376  1.00 -1.10    -0.033 A 
HETATM   11  C19 HET A   1     -33.853  13.835 -18.328  1.00 -1.37     0.009 A 
HETATM   12  C21 HET A   1     -32.945  12.874 -17.886  1.00 -1.27     0.001 A 
HETATM   13  C22 HET A   1     -31.694  12.770 -18.492  1.00 -1.00     0.000 A 
HETATM   14  C20 HET A   1     -31.351  13.616 -19.547  1.00 -1.23     0.001 A 
HETATM   15  C18 HET A   1     -32.256  14.573 -19.996  1.00 -1.59     0.009 A 
ENDBRANCH   9  10
ENDBRANCH   5   9
ENDBRANCH   1   2
BRANCH   1  16
HETATM   16  C3  HET A   1     -34.299  21.394 -16.206  1.00 -2.25     0.065 A 
HETATM   17  C8  HET A   1     -33.000  20.882 -15.531  1.00 -2.93     0.052 A 
HETATM   18  C10 HET A   1     -32.801  21.786 -14.348  1.00  0.68    -0.041 A 
HETATM   19  C13 HET A   1     -31.714  21.796 -13.482  1.00 -3.15     0.047 A 
HETATM   20  C11 HET A   1     -33.862  22.680 -14.190  1.00 -2.15     0.019 A 
HETATM   21  C16 HET A   1     -31.720  22.724 -12.440  1.00  2.20     0.102 A 
HETATM   22  C17 HET A   1     -32.816  23.626 -12.269  1.00  1.16     0.102 A 
HETATM   23  C14 HET A   1     -33.888  23.605 -13.147  1.00 -1.55     0.055 A 
HETATM   24  C9  HET A   1     -34.845  22.489 -15.259  1.00  4.84     0.164 A 
HETATM   25  O1  HET A   1     -35.891  23.048 -15.438  1.00 -4.36    -0.292 OA
BRANCH  21  26
HETATM   26  O2  HET A   1     -30.746  22.870 -11.515  1.00 -2.48    -0.353 OA
HETATM   27  C23 HET A   1     -29.588  23.602 -11.904  1.00 -2.19     0.210 C 
ENDBRANCH  21  26
BRANCH  22  28
HETATM   28  O3  HET A   1     -32.667  24.458 -11.205  1.00 -2.63    -0.353 OA
HETATM   29  C24 HET A   1     -32.907  25.841 -11.439  1.00 -2.14     0.210 C 
ENDBRANCH  22  28
ENDBRANCH   1  16
TORSDOF 6
ENDMDL
MODEL 10
REMARK VINA RESULT:    -7.700      6.027     11.246
REMARK INTER + INTRA:         -11.154
REMARK INTER:                 -10.909
REMARK INTRA:                  -0.245
REMARK UNBOUND:                -0.753
REMARK  6 active torsions:
REMARK  status: ('A' for Active; 'I' for Inactive)
REMARK    1  A    between atoms: O2_2  and  C16_20 
REMARK    2  A    between atoms: O3_3  and  C17_21 
REMARK    3  A    between atoms: N_4  and  C12_16 
REMARK    4  A    between atoms: C1_5  and  C2_6 
REMARK    5  A    between atoms: C2_6  and  C3_7 
REMARK    6  A    between atoms: C12_16  and  C15_19 
ROOT
HETATM    1  C2  HET A   1     -35.553  17.248 -18.100  1.00 -2.90     0.017 C 
ENDROOT
BRANCH   1   2
HETATM    2  C1  HET A   1     -34.595  16.076 -18.354  1.00 -0.95    -0.011 C 
HETATM    3  C5  HET A   1     -34.859  15.426 -19.723  1.00 -3.14     0.032 C 
HETATM    4  C7  HET A   1     -33.903  14.261 -19.958  1.00 -1.71     0.235 C 
HETATM    5  N   HET A   1     -34.089  13.213 -18.873  1.00 -1.14    -0.067 N 
HETATM    6  C6  HET A   1     -33.817  13.827 -17.509  1.00 -1.68     0.235 C 
HETATM    7  H   HET A   1     -35.086  12.878 -18.907  1.00  3.03     0.280 HD
HETATM    8  C4  HET A   1     -34.760  15.005 -17.263  1.00 -3.17     0.032 C 
BRANCH   5   9
HETATM    9  C12 HET A   1     -33.158  12.032 -19.113  1.00 -1.78     0.273 C 
BRANCH   9  10
HETATM   10  C15 HET A   1     -31.805  12.362 -18.559  1.00 -1.10    -0.033 A 
HETATM   11  C19 HET A   1     -30.914  13.137 -19.301  1.00 -1.37     0.009 A 
HETATM   12  C21 HET A   1     -29.658  13.438 -18.778  1.00 -1.27     0.001 A 
HETATM   13  C22 HET A   1     -29.298  12.963 -17.518  1.00 -1.00     0.000 A 
HETATM   14  C20 HET A   1     -30.196  12.198 -16.772  1.00 -1.23     0.001 A 
HETATM   15  C18 HET A   1     -31.454  11.899 -17.288  1.00 -1.59     0.009 A 
ENDBRANCH   9  10
ENDBRANCH   5   9
ENDBRANCH   1   2
BRANCH   1  16
HETATM   16  C3  HET A   1     -34.837  18.597 -18.108  1.00 -2.25     0.065 A 
HETATM   17  C8  HET A   1     -33.493  18.598 -17.333  1.00 -2.93     0.052 A 
HETATM   18  C10 HET A   1     -33.628  19.712 -16.335  1.00  0.68    -0.041 A 
HETATM   19  C13 HET A   1     -32.644  20.178 -15.471  1.00 -3.15     0.047 A 
HETATM   20  C11 HET A   1     -34.901  20.283 -16.359  1.00 -2.15     0.019 A 
HETATM   21  C16 HET A   1     -32.972  21.232 -14.619  1.00  2.20     0.102 A 
HETATM   22  C17 HET A   1     -34.283  21.804 -14.631  1.00  1.16     0.102 A 
HETATM   23  C14 HET A   1     -35.248  21.329 -15.505  1.00 -1.55     0.055 A 
HETATM   24  C9  HET A   1     -35.723  19.640 -17.387  1.00  4.84     0.164 A 
HETATM   25  O1  HET A   1     -36.868  19.841 -17.680  1.00 -4.36    -0.292 OA
BRANCH  21  26
HETATM   26  O2  HET A   1     -32.138  21.805 -13.724  1.00 -2.48    -0.353 OA
HETATM   27  C23 HET A   1     -30.857  21.206 -13.555  1.00 -2.19     0.210 C 
ENDBRANCH  21  26
BRANCH  22  28
HETATM   28  O3  HET A   1     -34.438  22.815 -13.738  1.00 -2.63    -0.353 OA
HETATM   29  C24 HET A   1     -35.612  23.608 -13.870  1.00 -2.14     0.210 C 
ENDBRANCH  22  28
ENDBRANCH   1  16
TORSDOF 6
ENDMDL
MODEL 11
REMARK VINA RESULT:    -7.612      4.927     12.379
REMARK INTER + INTRA:         -11.035
REMARK INTER:                 -10.138
REMARK INTRA:                  -0.896
REMARK UNBOUND:                -0.753
REMARK  6 active torsions:
REMARK  status: ('A' for Active; 'I' for Inactive)
REMARK    1  A    between atoms: O2_2  and  C16_20 
REMARK    2  A    between atoms: O3_3  and  C17_21 
REMARK    3  A    between atoms: N_4  and  C12_16 
REMARK    4  A    between atoms: C1_5  and  C2_6 
REMARK    5  A    between atoms: C2_6  and  C3_7 
REMARK    6  A    between atoms: C12_16  and  C15_19 
ROOT
HETATM    1  C2  HET A   1     -36.484  23.640 -15.281  1.00 -2.90     0.017 C 
ENDROOT
BRANCH   1   2
HETATM    2  C1  HET A   1     -37.913  23.175 -15.595  1.00 -0.95    -0.011 C 
HETATM    3  C5  HET A   1     -38.899  24.356 -15.582  1.00 -3.14     0.032 C 
HETATM    4  C7  HET A   1     -40.314  23.877 -15.889  1.00 -1.71     0.235 C 
HETATM    5  N   HET A   1     -40.753  22.860 -14.849  1.00 -1.14    -0.067 N 
HETATM    6  C6  HET A   1     -39.802  21.673 -14.853  1.00 -1.68     0.235 C 
HETATM    7  H   HET A   1     -40.723  23.322 -13.904  1.00  3.03     0.280 HD
HETATM    8  C4  HET A   1     -38.377  22.138 -14.558  1.00 -3.17     0.032 C 
BRANCH   5   9
HETATM    9  C12 HET A   1     -42.176  22.394 -15.131  1.00 -1.78     0.273 C 
BRANCH   9  10
HETATM   10  C15 HET A   1     -43.057  22.819 -13.996  1.00 -1.10    -0.033 A 
HETATM   11  C19 HET A   1     -44.439  22.893 -14.173  1.00 -1.37     0.009 A 
HETATM   12  C21 HET A   1     -45.251  23.290 -13.111  1.00 -1.27     0.001 A 
HETATM   13  C22 HET A   1     -44.679  23.612 -11.882  1.00 -1.00     0.000 A 
HETATM   14  C20 HET A   1     -43.298  23.527 -11.705  1.00 -1.23     0.001 A 
HETATM   15  C18 HET A   1     -42.483  23.126 -12.760  1.00 -1.59     0.009 A 
ENDBRANCH   9  10
ENDBRANCH   5   9
ENDBRANCH   1   2
BRANCH   1  16
HETATM   16  C3  HET A   1     -35.841  22.824 -14.161  1.00 -2.25     0.065 A 
HETATM   17  C8  HET A   1     -35.255  23.687 -13.013  1.00 -2.93     0.052 A 
HETATM   18  C10 HET A   1     -33.821  23.255 -12.903  1.00  0.68    -0.041 A 
HETATM   19  C13 HET A   1     -32.899  23.666 -11.947  1.00 -3.15     0.047 A 
HETATM   20  C11 HET A   1     -33.474  22.339 -13.897  1.00 -2.15     0.019 A 
HETATM   21  C16 HET A   1     -31.609  23.140 -12.018  1.00  2.20     0.102 A 
HETATM   22  C17 HET A   1     -31.250  22.216 -13.048  1.00  1.16     0.102 A 
HETATM   23  C14 HET A   1     -32.186  21.813 -13.988  1.00 -1.55     0.055 A 
HETATM   24  C9  HET A   1     -34.636  22.043 -14.738  1.00  4.84     0.164 A 
HETATM   25  O1  HET A   1     -34.717  21.331 -15.699  1.00 -4.36    -0.292 OA
BRANCH  21  26
HETATM   26  O2  HET A   1     -30.597  23.429 -11.170  1.00 -2.48    -0.353 OA
HETATM   27  C23 HET A   1     -30.904  24.259 -10.054  1.00 -2.19     0.210 C 
ENDBRANCH  21  26
BRANCH  22  28
HETATM   28  O3  HET A   1     -29.957  21.806 -12.977  1.00 -2.63    -0.353 OA
HETATM   29  C24 HET A   1     -29.536  20.856 -13.949  1.00 -2.14     0.210 C 
ENDBRANCH  22  28
ENDBRANCH   1  16
TORSDOF 6
ENDMDL
MODEL 12
REMARK VINA RESULT:    -7.609      5.138      8.467
REMARK INTER + INTRA:         -11.031
REMARK INTER:                 -10.086
REMARK INTRA:                  -0.945
REMARK UNBOUND:                -0.753
REMARK  6 active torsions:
REMARK  status: ('A' for Active; 'I' for Inactive)
REMARK    1  A    between atoms: O2_2  and  C16_20 
REMARK    2  A    between atoms: O3_3  and  C17_21 
REMARK    3  A    between atoms: N_4  and  C12_16 
REMARK    4  A    between atoms: C1_5  and  C2_6 
REMARK    5  A    between atoms: C2_6  and  C3_7 
REMARK    6  A    between atoms: C12_16  and  C15_19 
ROOT
HETATM    1  C2  HET A   1     -33.250  21.461 -18.754  1.00 -2.90     0.017 C 
ENDROOT
BRANCH   1   2
HETATM    2  C1  HET A   1     -33.654  21.581 -17.278  1.00 -0.95    -0.011 C 
HETATM    3  C5  HET A   1     -33.998  23.034 -16.910  1.00 -3.14     0.032 C 
HETATM    4  C7  HET A   1     -34.391  23.138 -15.440  1.00 -1.71     0.235 C 
HETATM    5  N   HET A   1     -33.241  22.670 -14.564  1.00 -1.14    -0.067 N 
HETATM    6  C6  HET A   1     -32.891  21.228 -14.897  1.00 -1.68     0.235 C 
HETATM    7  H   HET A   1     -32.407  23.280 -14.761  1.00  3.03     0.280 HD
HETATM    8  C4  HET A   1     -32.506  21.105 -16.371  1.00 -3.17     0.032 C 
BRANCH   5   9
HETATM    9  C12 HET A   1     -33.612  22.794 -13.092  1.00 -1.78     0.273 C 
BRANCH   9  10
HETATM   10  C15 HET A   1     -32.646  23.726 -12.426  1.00 -1.10    -0.033 A 
HETATM   11  C19 HET A   1     -31.307  23.363 -12.284  1.00 -1.37     0.009 A 
HETATM   12  C21 HET A   1     -30.416  24.238 -11.664  1.00 -1.27     0.001 A 
HETATM   13  C22 HET A   1     -30.867  25.467 -11.188  1.00 -1.00     0.000 A 
HETATM   14  C20 HET A   1     -32.205  25.832 -11.341  1.00 -1.23     0.001 A 
HETATM   15  C18 HET A   1     -33.098  24.965 -11.965  1.00 -1.59     0.009 A 
ENDBRANCH   9  10
ENDBRANCH   5   9
ENDBRANCH   1   2
BRANCH   1  16
HETATM   16  C3  HET A   1     -33.927  20.280 -19.447  1.00 -2.25     0.065 A 
HETATM   17  C8  HET A   1     -34.716  19.356 -18.483  1.00 -2.93     0.052 A 
HETATM   18  C10 HET A   1     -34.150  17.985 -18.718  1.00  0.68    -0.041 A 
HETATM   19  C13 HET A   1     -34.599  16.793 -18.162  1.00 -3.15     0.047 A 
HETATM   20  C11 HET A   1     -33.074  18.010 -19.607  1.00 -2.15     0.019 A 
HETATM   21  C16 HET A   1     -33.934  15.619 -18.514  1.00  2.20     0.102 A 
HETATM   22  C17 HET A   1     -32.820  15.648 -19.411  1.00  1.16     0.102 A 
HETATM   23  C14 HET A   1     -32.392  16.846 -19.960  1.00 -1.55     0.055 A 
HETATM   24  C9  HET A   1     -32.840  19.377 -20.077  1.00  4.84     0.164 A 
HETATM   25  O1  HET A   1     -31.995  19.791 -20.820  1.00 -4.36    -0.292 OA
BRANCH  21  26
HETATM   26  O2  HET A   1     -34.242  14.380 -18.070  1.00 -2.48    -0.353 OA
HETATM   27  C23 HET A   1     -34.564  14.248 -16.690  1.00 -2.19     0.210 C 
ENDBRANCH  21  26
BRANCH  22  28
HETATM   28  O3  HET A   1     -32.284  14.422 -19.643  1.00 -2.63    -0.353 OA
HETATM   29  C24 HET A   1     -32.363  13.935 -20.978  1.00 -2.14     0.210 C 
ENDBRANCH  22  28
ENDBRANCH   1  16
TORSDOF 6
ENDMDL
MODEL 13
REMARK VINA RESULT:    -7.492      4.599     11.996
REMARK INTER + INTRA:         -10.872
REMARK INTER:                 -10.087
REMARK INTRA:                  -0.785
REMARK UNBOUND:                -0.753
REMARK  6 active torsions:
REMARK  status: ('A' for Active; 'I' for Inactive)
REMARK    1  A    between atoms: O2_2  and  C16_20 
REMARK    2  A    between atoms: O3_3  and  C17_21 
REMARK    3  A    between atoms: N_4  and  C12_16 
REMARK    4  A    between atoms: C1_5  and  C2_6 
REMARK    5  A    between atoms: C2_6  and  C3_7 
REMARK    6  A    between atoms: C12_16  and  C15_19 
ROOT
HETATM    1  C2  HET A   1     -34.210  21.233 -16.966  1.00 -2.90     0.017 C 
ENDROOT
BRANCH   1   2
HETATM    2  C1  HET A   1     -35.599  20.963 -17.561  1.00 -0.95    -0.011 C 
HETATM    3  C5  HET A   1     -36.385  22.271 -17.759  1.00 -3.14     0.032 C 
HETATM    4  C7  HET A   1     -37.764  21.986 -18.344  1.00 -1.71     0.235 C 
HETATM    5  N   HET A   1     -38.546  21.081 -17.408  1.00 -1.14    -0.067 N 
HETATM    6  C6  HET A   1     -37.798  19.772 -17.208  1.00 -1.68     0.235 C 
HETATM    7  H   HET A   1     -38.639  21.569 -16.480  1.00  3.03     0.280 HD
HETATM    8  C4  HET A   1     -36.408  20.041 -16.632  1.00 -3.17     0.032 C 
BRANCH   5   9
HETATM    9  C12 HET A   1     -39.936  20.810 -17.970  1.00 -1.78     0.273 C 
BRANCH   9  10
HETATM   10  C15 HET A   1     -40.853  20.450 -16.841  1.00 -1.10    -0.033 A 
HETATM   11  C19 HET A   1     -40.809  21.169 -15.646  1.00 -1.37     0.009 A 
HETATM   12  C21 HET A   1     -41.666  20.826 -14.601  1.00 -1.27     0.001 A 
HETATM   13  C22 HET A   1     -42.559  19.767 -14.755  1.00 -1.00     0.000 A 
HETATM   14  C20 HET A   1     -42.608  19.057 -15.955  1.00 -1.23     0.001 A 
HETATM   15  C18 HET A   1     -41.759  19.399 -17.003  1.00 -1.59     0.009 A 
ENDBRANCH   9  10
ENDBRANCH   5   9
ENDBRANCH   1   2
BRANCH   1  16
HETATM   16  C3  HET A   1     -34.193  21.094 -15.445  1.00 -2.25     0.065 A 
HETATM   17  C8  HET A   1     -34.639  22.375 -14.693  1.00 -2.93     0.052 A 
HETATM   18  C10 HET A   1     -33.505  22.684 -13.758  1.00  0.68    -0.041 A 
HETATM   19  C13 HET A   1     -33.470  23.686 -12.794  1.00 -3.15     0.047 A 
HETATM   20  C11 HET A   1     -32.425  21.819 -13.942  1.00 -2.15     0.019 A 
HETATM   21  C16 HET A   1     -32.317  23.805 -12.020  1.00  2.20     0.102 A 
HETATM   22  C17 HET A   1     -31.204  22.929 -12.223  1.00  1.16     0.102 A 
HETATM   23  C14 HET A   1     -31.261  21.933 -13.185  1.00 -1.55     0.055 A 
HETATM   24  C9  HET A   1     -32.740  20.835 -14.980  1.00  4.84     0.164 A 
HETATM   25  O1  HET A   1     -32.056  19.957 -15.428  1.00 -4.36    -0.292 OA
BRANCH  21  26
HETATM   26  O2  HET A   1     -32.119  24.717 -11.042  1.00 -2.48    -0.353 OA
HETATM   27  C23 HET A   1     -32.606  26.034 -11.277  1.00 -2.19     0.210 C 
ENDBRANCH  21  26
BRANCH  22  28
HETATM   28  O3  HET A   1     -30.160  23.184 -11.392  1.00 -2.63    -0.353 OA
HETATM   29  C24 HET A   1     -28.890  23.370 -12.005  1.00 -2.14     0.210 C 
ENDBRANCH  22  28
ENDBRANCH   1  16
TORSDOF 6
ENDMDL
MODEL 14
REMARK VINA RESULT:    -7.483      5.141      9.153
REMARK INTER + INTRA:         -10.861
REMARK INTER:                 -10.353
REMARK INTRA:                  -0.507
REMARK UNBOUND:                -0.753
REMARK  6 active torsions:
REMARK  status: ('A' for Active; 'I' for Inactive)
REMARK    1  A    between atoms: O2_2  and  C16_20 
REMARK    2  A    between atoms: O3_3  and  C17_21 
REMARK    3  A    between atoms: N_4  and  C12_16 
REMARK    4  A    between atoms: C1_5  and  C2_6 
REMARK    5  A    between atoms: C2_6  and  C3_7 
REMARK    6  A    between atoms: C12_16  and  C15_19 
ROOT
HETATM    1  C2  HET A   1     -38.084  21.208 -14.882  1.00 -2.90     0.017 C 
ENDROOT
BRANCH   1   2
HETATM    2  C1  HET A   1     -37.336  22.456 -14.393  1.00 -0.95    -0.011 C 
HETATM    3  C5  HET A   1     -35.860  22.426 -14.824  1.00 -3.14     0.032 C 
HETATM    4  C7  HET A   1     -35.129  23.668 -14.326  1.00 -1.71     0.235 C 
HETATM    5  N   HET A   1     -35.196  23.735 -12.809  1.00 -1.14    -0.067 N 
HETATM    6  C6  HET A   1     -36.647  23.782 -12.357  1.00 -1.68     0.235 C 
HETATM    7  H   HET A   1     -34.744  22.867 -12.422  1.00  3.03     0.280 HD
HETATM    8  C4  HET A   1     -37.397  22.549 -12.858  1.00 -3.17     0.032 C 
BRANCH   5   9
HETATM    9  C12 HET A   1     -34.447  24.958 -12.299  1.00 -1.78     0.273 C 
BRANCH   9  10
HETATM   10  C15 HET A   1     -33.016  24.584 -12.058  1.00 -1.10    -0.033 A 
HETATM   11  C19 HET A   1     -32.571  23.293 -12.347  1.00 -1.37     0.009 A 
HETATM   12  C21 HET A   1     -31.239  22.954 -12.119  1.00 -1.27     0.001 A 
HETATM   13  C22 HET A   1     -30.359  23.904 -11.603  1.00 -1.00     0.000 A 
HETATM   14  C20 HET A   1     -30.804  25.197 -11.325  1.00 -1.23     0.001 A 
HETATM   15  C18 HET A   1     -32.132  25.543 -11.556  1.00 -1.59     0.009 A 
ENDBRANCH   9  10
ENDBRANCH   5   9
ENDBRANCH   1   2
BRANCH   1  16
HETATM   16  C3  HET A   1     -39.505  21.526 -15.343  1.00 -2.25     0.065 A 
HETATM   17  C8  HET A   1     -40.609  20.927 -14.432  1.00 -2.93     0.052 A 
HETATM   18  C10 HET A   1     -41.473  20.120 -15.358  1.00  0.68    -0.041 A 
HETATM   19  C13 HET A   1     -42.657  19.468 -15.035  1.00 -3.15     0.047 A 
HETATM   20  C11 HET A   1     -40.959  20.088 -16.656  1.00 -2.15     0.019 A 
HETATM   21  C16 HET A   1     -43.315  18.771 -16.048  1.00  2.20     0.102 A 
HETATM   22  C17 HET A   1     -42.778  18.724 -17.373  1.00  1.16     0.102 A 
HETATM   23  C14 HET A   1     -41.599  19.386 -17.677  1.00 -1.55     0.055 A 
HETATM   24  C9  HET A   1     -39.736  20.890 -16.734  1.00  4.84     0.164 A 
HETATM   25  O1  HET A   1     -39.007  21.075 -17.668  1.00 -4.36    -0.292 OA
BRANCH  21  26
HETATM   26  O2  HET A   1     -44.473  18.090 -15.907  1.00 -2.48    -0.353 OA
HETATM   27  C23 HET A   1     -44.840  17.702 -14.586  1.00 -2.19     0.210 C 
ENDBRANCH  21  26
BRANCH  22  28
HETATM   28  O3  HET A   1     -43.537  18.000 -18.236  1.00 -2.63    -0.353 OA
HETATM   29  C24 HET A   1     -43.235  18.137 -19.619  1.00 -2.14     0.210 C 
ENDBRANCH  22  28
ENDBRANCH   1  16
TORSDOF 6
ENDMDL
MODEL 15
REMARK VINA RESULT:    -7.413     18.422     21.565
REMARK INTER + INTRA:         -10.765
REMARK INTER:                  -9.667
REMARK INTRA:                  -1.099
REMARK UNBOUND:                -0.753
REMARK  6 active torsions:
REMARK  status: ('A' for Active; 'I' for Inactive)
REMARK    1  A    between atoms: O2_2  and  C16_20 
REMARK    2  A    between atoms: O3_3  and  C17_21 
REMARK    3  A    between atoms: N_4  and  C12_16 
REMARK    4  A    between atoms: C1_5  and  C2_6 
REMARK    5  A    between atoms: C2_6  and  C3_7 
REMARK    6  A    between atoms: C12_16  and  C15_19 
ROOT
HETATM    1  C2  HET A   1     -43.960  32.274  -0.076  1.00 -2.90     0.017 C 
ENDROOT
BRANCH   1   2
HETATM    2  C1  HET A   1     -43.462  30.823  -0.132  1.00 -0.95    -0.011 C 
HETATM    3  C5  HET A   1     -43.684  30.210  -1.525  1.00 -3.14     0.032 C 
HETATM    4  C7  HET A   1     -43.190  28.768  -1.563  1.00 -1.71     0.235 C 
HETATM    5  N   HET A   1     -43.942  27.937  -0.536  1.00 -1.14    -0.067 N 
HETATM    6  C6  HET A   1     -43.726  28.513   0.854  1.00 -1.68     0.235 C 
HETATM    7  H   HET A   1     -44.968  27.977  -0.769  1.00  3.03     0.280 HD
HETATM    8  C4  HET A   1     -44.205  29.963   0.906  1.00 -3.17     0.032 C 
BRANCH   5   9
HETATM    9  C12 HET A   1     -43.476  26.488  -0.583  1.00 -1.78     0.273 C 
BRANCH   9  10
HETATM   10  C15 HET A   1     -43.877  25.893  -1.898  1.00 -1.10    -0.033 A 
HETATM   11  C19 HET A   1     -42.917  25.311  -2.726  1.00 -1.37     0.009 A 
HETATM   12  C21 HET A   1     -43.300  24.760  -3.948  1.00 -1.27     0.001 A 
HETATM   13  C22 HET A   1     -44.638  24.795  -4.337  1.00 -1.00     0.000 A 
HETATM   14  C20 HET A   1     -45.598  25.368  -3.501  1.00 -1.23     0.001 A 
HETATM   15  C18 HET A   1     -45.222  25.914  -2.278  1.00 -1.59     0.009 A 
ENDBRANCH   9  10
ENDBRANCH   5   9
ENDBRANCH   1   2
BRANCH   1  16
HETATM   16  C3  HET A   1     -43.061  33.164   0.781  1.00 -2.25     0.065 A 
HETATM   17  C8  HET A   1     -41.691  32.524   1.126  1.00 -2.93     0.052 A 
HETATM   18  C10 HET A   1     -41.612  32.572   2.624  1.00  0.68    -0.041 A 
HETATM   19  C13 HET A   1     -40.527  32.208   3.413  1.00 -3.15     0.047 A 
HETATM   20  C11 HET A   1     -42.791  33.056   3.194  1.00 -2.15     0.019 A 
HETATM   21  C16 HET A   1     -40.655  32.333   4.796  1.00  2.20     0.102 A 
HETATM   22  C17 HET A   1     -41.871  32.811   5.379  1.00  1.16     0.102 A 
HETATM   23  C14 HET A   1     -42.940  33.175   4.575  1.00 -1.55     0.055 A 
HETATM   24  C9  HET A   1     -43.750  33.409   2.144  1.00  4.84     0.164 A 
HETATM   25  O1  HET A   1     -44.869  33.826   2.247  1.00 -4.36    -0.292 OA
BRANCH  21  26
HETATM   26  O2  HET A   1     -39.701  32.028   5.703  1.00 -2.48    -0.353 OA
HETATM   27  C23 HET A   1     -38.372  31.868   5.216  1.00 -2.19     0.210 C 
ENDBRANCH  21  26
BRANCH  22  28
HETATM   28  O3  HET A   1     -41.832  32.866   6.736  1.00 -2.63    -0.353 OA
HETATM   29  C24 HET A   1     -43.086  32.911   7.407  1.00 -2.14     0.210 C 
ENDBRANCH  22  28
ENDBRANCH   1  16
TORSDOF 6
ENDMDL
MODEL 16
REMARK VINA RESULT:    -7.394     16.247     18.540
REMARK INTER + INTRA:         -10.741
REMARK INTER:                  -9.673
REMARK INTRA:                  -1.068
REMARK UNBOUND:                -0.753
REMARK  6 active torsions:
REMARK  status: ('A' for Active; 'I' for Inactive)
REMARK    1  A    between atoms: O2_2  and  C16_20 
REMARK    2  A    between atoms: O3_3  and  C17_21 
REMARK    3  A    between atoms: N_4  and  C12_16 
REMARK    4  A    between atoms: C1_5  and  C2_6 
REMARK    5  A    between atoms: C2_6  and  C3_7 
REMARK    6  A    between atoms: C12_16  and  C15_19 
ROOT
HETATM    1  C2  HET A   1     -45.351  28.924  -3.088  1.00 -2.90     0.017 C 
ENDROOT
BRANCH   1   2
HETATM    2  C1  HET A   1     -44.783  29.028  -1.666  1.00 -0.95    -0.011 C 
HETATM    3  C5  HET A   1     -45.770  29.738  -0.723  1.00 -3.14     0.032 C 
HETATM    4  C7  HET A   1     -45.190  29.839   0.684  1.00 -1.71     0.235 C 
HETATM    5  N   HET A   1     -43.890  30.626   0.652  1.00 -1.14    -0.067 N 
HETATM    6  C6  HET A   1     -42.890  29.935  -0.262  1.00 -1.68     0.235 C 
HETATM    7  H   HET A   1     -44.095  31.586   0.274  1.00  3.03     0.280 HD
HETATM    8  C4  HET A   1     -43.461  29.814  -1.674  1.00 -3.17     0.032 C 
BRANCH   5   9
HETATM    9  C12 HET A   1     -43.314  30.756   2.056  1.00 -1.78     0.273 C 
BRANCH   9  10
HETATM   10  C15 HET A   1     -42.104  31.638   2.003  1.00 -1.10    -0.033 A 
HETATM   11  C19 HET A   1     -40.845  31.119   2.306  1.00 -1.37     0.009 A 
HETATM   12  C21 HET A   1     -39.725  31.947   2.253  1.00 -1.27     0.001 A 
HETATM   13  C22 HET A   1     -39.869  33.288   1.902  1.00 -1.00     0.000 A 
HETATM   14  C20 HET A   1     -41.128  33.802   1.589  1.00 -1.23     0.001 A 
HETATM   15  C18 HET A   1     -42.249  32.978   1.634  1.00 -1.59     0.009 A 
ENDBRANCH   9  10
ENDBRANCH   5   9
ENDBRANCH   1   2
BRANCH   1  16
HETATM   16  C3  HET A   1     -45.498  27.475  -3.549  1.00 -2.25     0.065 A 
HETATM   17  C8  HET A   1     -46.110  26.535  -2.478  1.00 -2.93     0.052 A 
HETATM   18  C10 HET A   1     -45.114  25.422  -2.330  1.00  0.68    -0.041 A 
HETATM   19  C13 HET A   1     -45.255  24.274  -1.558  1.00 -3.15     0.047 A 
HETATM   20  C11 HET A   1     -43.965  25.645  -3.092  1.00 -2.15     0.019 A 
HETATM   21  C16 HET A   1     -44.208  23.354  -1.561  1.00  2.20     0.102 A 
HETATM   22  C17 HET A   1     -43.024  23.593  -2.327  1.00  1.16     0.102 A 
HETATM   23  C14 HET A   1     -42.904  24.740  -3.095  1.00 -1.55     0.055 A 
HETATM   24  C9  HET A   1     -44.093  26.896  -3.843  1.00  4.84     0.164 A 
HETATM   25  O1  HET A   1     -43.306  27.427  -4.575  1.00 -4.36    -0.292 OA
BRANCH  21  26
HETATM   26  O2  HET A   1     -44.184  22.191  -0.873  1.00 -2.48    -0.353 OA
HETATM   27  C23 HET A   1     -45.367  21.398  -0.900  1.00 -2.19     0.210 C 
ENDBRANCH  21  26
BRANCH  22  28
HETATM   28  O3  HET A   1     -42.100  22.603  -2.214  1.00 -2.63    -0.353 OA
HETATM   29  C24 HET A   1     -41.071  22.577  -3.195  1.00 -2.14     0.210 C 
ENDBRANCH  22  28
ENDBRANCH   1  16
TORSDOF 6
ENDMDL
MODEL 17
REMARK VINA RESULT:    -7.329     33.485     35.024
REMARK INTER + INTRA:         -10.653
REMARK INTER:                  -9.923
REMARK INTRA:                  -0.730
REMARK UNBOUND:                -0.753
REMARK  6 active torsions:
REMARK  status: ('A' for Active; 'I' for Inactive)
REMARK    1  A    between atoms: O2_2  and  C16_20 
REMARK    2  A    between atoms: O3_3  and  C17_21 
REMARK    3  A    between atoms: N_4  and  C12_16 
REMARK    4  A    between atoms: C1_5  and  C2_6 
REMARK    5  A    between atoms: C2_6  and  C3_7 
REMARK    6  A    between atoms: C12_16  and  C15_19 
ROOT
HETATM    1  C2  HET A   1      -4.633  33.470   7.573  1.00 -2.90     0.017 C 
ENDROOT
BRANCH   1   2
HETATM    2  C1  HET A   1      -3.436  32.515   7.676  1.00 -0.95    -0.011 C 
HETATM    3  C5  HET A   1      -2.386  32.818   6.592  1.00 -3.14     0.032 C 
HETATM    4  C7  HET A   1      -1.207  31.858   6.704  1.00 -1.71     0.235 C 
HETATM    5  N   HET A   1      -1.687  30.426   6.534  1.00 -1.14    -0.067 N 
HETATM    6  C6  HET A   1      -2.715  30.096   7.605  1.00 -1.68     0.235 C 
HETATM    7  H   HET A   1      -2.138  30.341   5.587  1.00  3.03     0.280 HD
HETATM    8  C4  HET A   1      -3.900  31.057   7.514  1.00 -3.17     0.032 C 
BRANCH   5   9
HETATM    9  C12 HET A   1      -0.513  29.460   6.617  1.00 -1.78     0.273 C 
BRANCH   9  10
HETATM   10  C15 HET A   1      -0.441  28.677   5.341  1.00 -1.10    -0.033 A 
HETATM   11  C19 HET A   1       0.728  28.685   4.579  1.00 -1.37     0.009 A 
HETATM   12  C21 HET A   1       0.786  27.953   3.394  1.00 -1.27     0.001 A 
HETATM   13  C22 HET A   1      -0.323  27.220   2.976  1.00 -1.00     0.000 A 
HETATM   14  C20 HET A   1      -1.487  27.205   3.746  1.00 -1.23     0.001 A 
HETATM   15  C18 HET A   1      -1.549  27.929   4.933  1.00 -1.59     0.009 A 
ENDBRANCH   9  10
ENDBRANCH   5   9
ENDBRANCH   1   2
BRANCH   1  16
HETATM   16  C3  HET A   1      -4.797  34.332   8.823  1.00 -2.25     0.065 A 
HETATM   17  C8  HET A   1      -6.259  34.423   9.334  1.00 -2.93     0.052 A 
HETATM   18  C10 HET A   1      -6.550  35.895   9.400  1.00  0.68    -0.041 A 
HETATM   19  C13 HET A   1      -7.702  36.494   9.897  1.00 -3.15     0.047 A 
HETATM   20  C11 HET A   1      -5.495  36.659   8.898  1.00 -2.15     0.019 A 
HETATM   21  C16 HET A   1      -7.775  37.887   9.871  1.00  2.20     0.102 A 
HETATM   22  C17 HET A   1      -6.701  38.667   9.340  1.00  1.16     0.102 A 
HETATM   23  C14 HET A   1      -5.558  38.051   8.855  1.00 -1.55     0.055 A 
HETATM   24  C9  HET A   1      -4.393  35.787   8.487  1.00  4.84     0.164 A 
HETATM   25  O1  HET A   1      -3.341  36.075   7.989  1.00 -4.36    -0.292 OA
BRANCH  21  26
HETATM   26  O2  HET A   1      -8.815  38.626  10.316  1.00 -2.48    -0.353 OA
HETATM   27  C23 HET A   1      -9.213  38.436  11.670  1.00 -2.19     0.210 C 
ENDBRANCH  21  26
BRANCH  22  28
HETATM   28  O3  HET A   1      -6.934  40.005   9.384  1.00 -2.63    -0.353 OA
HETATM   29  C24 HET A   1      -5.790  40.850   9.414  1.00 -2.14     0.210 C 
ENDBRANCH  22  28
ENDBRANCH   1  16
TORSDOF 6
ENDMDL
MODEL 18
REMARK VINA RESULT:    -7.303     16.163     18.308
REMARK INTER + INTRA:         -10.617
REMARK INTER:                  -9.868
REMARK INTRA:                  -0.749
REMARK UNBOUND:                -0.753
REMARK  6 active torsions:
REMARK  status: ('A' for Active; 'I' for Inactive)
REMARK    1  A    between atoms: O2_2  and  C16_20 
REMARK    2  A    between atoms: O3_3  and  C17_21 
REMARK    3  A    between atoms: N_4  and  C12_16 
REMARK    4  A    between atoms: C1_5  and  C2_6 
REMARK    5  A    between atoms: C2_6  and  C3_7 
REMARK    6  A    between atoms: C12_16  and  C15_19 
ROOT
HETATM    1  C2  HET A   1     -45.732  29.039  -1.999  1.00 -2.90     0.017 C 
ENDROOT
BRANCH   1   2
HETATM    2  C1  HET A   1     -45.366  30.219  -1.088  1.00 -0.95    -0.011 C 
HETATM    3  C5  HET A   1     -44.397  31.186  -1.790  1.00 -3.14     0.032 C 
HETATM    4  C7  HET A   1     -44.038  32.349  -0.870  1.00 -1.71     0.235 C 
HETATM    5  N   HET A   1     -43.378  31.824   0.394  1.00 -1.14    -0.067 N 
HETATM    6  C6  HET A   1     -44.323  30.877   1.116  1.00 -1.68     0.235 C 
HETATM    7  H   HET A   1     -42.509  31.298   0.117  1.00  3.03     0.280 HD
HETATM    8  C4  HET A   1     -44.702  29.711   0.203  1.00 -3.17     0.032 C 
BRANCH   5   9
HETATM    9  C12 HET A   1     -42.991  32.979   1.308  1.00 -1.78     0.273 C 
BRANCH   9  10
HETATM   10  C15 HET A   1     -41.596  32.754   1.808  1.00 -1.10    -0.033 A 
HETATM   11  C19 HET A   1     -41.149  31.460   2.077  1.00 -1.37     0.009 A 
HETATM   12  C21 HET A   1     -39.849  31.261   2.542  1.00 -1.27     0.001 A 
HETATM   13  C22 HET A   1     -39.007  32.353   2.737  1.00 -1.00     0.000 A 
HETATM   14  C20 HET A   1     -39.453  33.645   2.456  1.00 -1.23     0.001 A 
HETATM   15  C18 HET A   1     -40.748  33.850   1.987  1.00 -1.59     0.009 A 
ENDBRANCH   9  10
ENDBRANCH   5   9
ENDBRANCH   1   2
BRANCH   1  16
HETATM   16  C3  HET A   1     -44.607  28.011  -2.097  1.00 -2.25     0.065 A 
HETATM   17  C8  HET A   1     -44.009  27.869  -3.521  1.00 -2.93     0.052 A 
HETATM   18  C10 HET A   1     -44.130  26.408  -3.844  1.00  0.68    -0.041 A 
HETATM   19  C13 HET A   1     -43.640  25.761  -4.972  1.00 -3.15     0.047 A 
HETATM   20  C11 HET A   1     -44.810  25.707  -2.845  1.00 -2.15     0.019 A 
HETATM   21  C16 HET A   1     -43.856  24.388  -5.081  1.00  2.20     0.102 A 
HETATM   22  C17 HET A   1     -44.569  23.675  -4.067  1.00  1.16     0.102 A 
HETATM   23  C14 HET A   1     -45.044  24.337  -2.946  1.00 -1.55     0.055 A 
HETATM   24  C9  HET A   1     -45.173  26.613  -1.753  1.00  4.84     0.164 A 
HETATM   25  O1  HET A   1     -45.783  26.383  -0.746  1.00 -4.36    -0.292 OA
BRANCH  21  26
HETATM   26  O2  HET A   1     -43.445  23.608  -6.106  1.00 -2.48    -0.353 OA
HETATM   27  C23 HET A   1     -43.806  24.021  -7.420  1.00 -2.19     0.210 C 
ENDBRANCH  21  26
BRANCH  22  28
HETATM   28  O3  HET A   1     -44.697  22.348  -4.330  1.00 -2.63    -0.353 OA
HETATM   29  C24 HET A   1     -44.935  21.498  -3.214  1.00 -2.14     0.210 C 
ENDBRANCH  22  28
ENDBRANCH   1  16
TORSDOF 6
ENDMDL
MODEL 19
REMARK VINA RESULT:    -7.295     15.065     17.371
REMARK INTER + INTRA:         -10.607
REMARK INTER:                  -9.908
REMARK INTRA:                  -0.699
REMARK UNBOUND:                -0.753
REMARK  6 active torsions:
REMARK  status: ('A' for Active; 'I' for Inactive)
REMARK    1  A    between atoms: O2_2  and  C16_20 
REMARK    2  A    between atoms: O3_3  and  C17_21 
REMARK    3  A    between atoms: N_4  and  C12_16 
REMARK    4  A    between atoms: C1_5  and  C2_6 
REMARK    5  A    between atoms: C2_6  and  C3_7 
REMARK    6  A    between atoms: C12_16  and  C15_19 
ROOT
HETATM    1  C2  HET A   1     -43.484  26.439  -2.115  1.00 -2.90     0.017 C 
ENDROOT
BRANCH   1   2
HETATM    2  C1  HET A   1     -43.971  27.680  -1.355  1.00 -0.95    -0.011 C 
HETATM    3  C5  HET A   1     -43.319  28.961  -1.901  1.00 -3.14     0.032 C 
HETATM    4  C7  HET A   1     -43.808  30.184  -1.132  1.00 -1.71     0.235 C 
HETATM    5  N   HET A   1     -43.455  30.043   0.340  1.00 -1.14    -0.067 N 
HETATM    6  C6  HET A   1     -44.103  28.791   0.910  1.00 -1.68     0.235 C 
HETATM    7  H   HET A   1     -42.410  29.957   0.421  1.00  3.03     0.280 HD
HETATM    8  C4  HET A   1     -43.632  27.557   0.141  1.00 -3.17     0.032 C 
BRANCH   5   9
HETATM    9  C12 HET A   1     -43.915  31.272   1.114  1.00 -1.78     0.273 C 
BRANCH   9  10
HETATM   10  C15 HET A   1     -42.713  31.969   1.673  1.00 -1.10    -0.033 A 
HETATM   11  C19 HET A   1     -42.332  33.216   1.176  1.00 -1.37     0.009 A 
HETATM   12  C21 HET A   1     -41.212  33.857   1.703  1.00 -1.27     0.001 A 
HETATM   13  C22 HET A   1     -40.478  33.250   2.720  1.00 -1.00     0.000 A 
HETATM   14  C20 HET A   1     -40.868  32.008   3.223  1.00 -1.23     0.001 A 
HETATM   15  C18 HET A   1     -41.989  31.366   2.705  1.00 -1.59     0.009 A 
ENDBRANCH   9  10
ENDBRANCH   5   9
ENDBRANCH   1   2
BRANCH   1  16
HETATM   16  C3  HET A   1     -44.424  26.051  -3.255  1.00 -2.25     0.065 A 
HETATM   17  C8  HET A   1     -44.742  24.534  -3.317  1.00 -2.93     0.052 A 
HETATM   18  C10 HET A   1     -44.367  24.121  -4.711  1.00  0.68    -0.041 A 
HETATM   19  C13 HET A   1     -44.561  22.872  -5.290  1.00 -3.15     0.047 A 
HETATM   20  C11 HET A   1     -43.781  25.167  -5.426  1.00 -2.15     0.019 A 
HETATM   21  C16 HET A   1     -44.144  22.692  -6.608  1.00  2.20     0.102 A 
HETATM   22  C17 HET A   1     -43.527  23.760  -7.334  1.00  1.16     0.102 A 
HETATM   23  C14 HET A   1     -43.348  25.000  -6.741  1.00 -1.55     0.055 A 
HETATM   24  C9  HET A   1     -43.739  26.378  -4.604  1.00  4.84     0.164 A 
HETATM   25  O1  HET A   1     -43.288  27.458  -4.864  1.00 -4.36    -0.292 OA
BRANCH  21  26
HETATM   26  O2  HET A   1     -44.261  21.549  -7.319  1.00 -2.48    -0.353 OA
HETATM   27  C23 HET A   1     -45.580  21.082  -7.583  1.00 -2.19     0.210 C 
ENDBRANCH  21  26
BRANCH  22  28
HETATM   28  O3  HET A   1     -43.175  23.418  -8.600  1.00 -2.63    -0.353 OA
HETATM   29  C24 HET A   1     -43.763  24.175  -9.651  1.00 -2.14     0.210 C 
ENDBRANCH  22  28
ENDBRANCH   1  16
TORSDOF 6
ENDMDL
MODEL 20
REMARK VINA RESULT:    -7.232      6.519      9.450
REMARK INTER + INTRA:         -10.522
REMARK INTER:                  -9.696
REMARK INTRA:                  -0.826
REMARK UNBOUND:                -0.753
REMARK  6 active torsions:
REMARK  status: ('A' for Active; 'I' for Inactive)
REMARK    1  A    between atoms: O2_2  and  C16_20 
REMARK    2  A    between atoms: O3_3  and  C17_21 
REMARK    3  A    between atoms: N_4  and  C12_16 
REMARK    4  A    between atoms: C1_5  and  C2_6 
REMARK    5  A    between atoms: C2_6  and  C3_7 
REMARK    6  A    between atoms: C12_16  and  C15_19 
ROOT
HETATM    1  C2  HET A   1     -34.091  23.136 -19.379  1.00 -2.90     0.017 C 
ENDROOT
BRANCH   1   2
HETATM    2  C1  HET A   1     -34.229  22.680 -17.920  1.00 -0.95    -0.011 C 
HETATM    3  C5  HET A   1     -35.036  23.695 -17.092  1.00 -3.14     0.032 C 
HETATM    4  C7  HET A   1     -35.159  23.232 -15.645  1.00 -1.71     0.235 C 
HETATM    5  N   HET A   1     -33.777  23.086 -15.029  1.00 -1.14    -0.067 N 
HETATM    6  C6  HET A   1     -32.963  22.074 -15.821  1.00 -1.68     0.235 C 
HETATM    7  H   HET A   1     -33.297  24.022 -15.072  1.00  3.03     0.280 HD
HETATM    8  C4  HET A   1     -32.840  22.518 -17.278  1.00 -3.17     0.032 C 
BRANCH   5   9
HETATM    9  C12 HET A   1     -33.888  22.649 -13.575  1.00 -1.78     0.273 C 
BRANCH   9  10
HETATM   10  C15 HET A   1     -33.039  23.552 -12.732  1.00 -1.10    -0.033 A 
HETATM   11  C19 HET A   1     -33.544  24.774 -12.287  1.00 -1.37     0.009 A 
HETATM   12  C21 HET A   1     -32.747  25.607 -11.504  1.00 -1.27     0.001 A 
HETATM   13  C22 HET A   1     -31.451  25.217 -11.172  1.00 -1.00     0.000 A 
HETATM   14  C20 HET A   1     -30.953  23.989 -11.609  1.00 -1.23     0.001 A 
HETATM   15  C18 HET A   1     -31.746  23.151 -12.387  1.00 -1.59     0.009 A 
ENDBRANCH   9  10
ENDBRANCH   5   9
ENDBRANCH   1   2
BRANCH   1  16
HETATM   16  C3  HET A   1     -32.766  23.849 -19.642  1.00 -2.25     0.065 A 
HETATM   17  C8  HET A   1     -32.831  25.386 -19.442  1.00 -2.93     0.052 A 
HETATM   18  C10 HET A   1     -32.343  25.962 -20.741  1.00  0.68    -0.041 A 
HETATM   19  C13 HET A   1     -32.120  27.304 -21.025  1.00 -3.15     0.047 A 
HETATM   20  C11 HET A   1     -32.106  24.970 -21.695  1.00 -2.15     0.019 A 
HETATM   21  C16 HET A   1     -31.660  27.633 -22.299  1.00  2.20     0.102 A 
HETATM   22  C17 HET A   1     -31.434  26.618 -23.281  1.00  1.16     0.102 A 
HETATM   23  C14 HET A   1     -31.657  25.284 -22.977  1.00 -1.55     0.055 A 
HETATM   24  C9  HET A   1     -32.373  23.648 -21.125  1.00  4.84     0.164 A 
HETATM   25  O1  HET A   1     -32.309  22.570 -21.645  1.00 -4.36    -0.292 OA
BRANCH  21  26
HETATM   26  O2  HET A   1     -31.389  28.882 -22.737  1.00 -2.48    -0.353 OA
HETATM   27  C23 HET A   1     -30.310  29.569 -22.112  1.00 -2.19     0.210 C 
ENDBRANCH  21  26
BRANCH  22  28
HETATM   28  O3  HET A   1     -30.993  27.107 -24.469  1.00 -2.63    -0.353 OA
HETATM   29  C24 HET A   1     -29.710  26.670 -24.900  1.00 -2.14     0.210 C 
ENDBRANCH  22  28
ENDBRANCH   1  16
TORSDOF 6
ENDMDL
