@<TRIPOS>MOLECULE
alicinaPM7.pdb
19 18 1 0 0
SMALL
AMBER ff14SB


@<TRIPOS>ATOM
      1 S1          0.1190   -0.0940    0.0440 S.o       1 IPH    0.0696
      2 S2          2.1820   -0.0940    0.0440 S.3       1 IPH    0.1026
      3 O          -0.4510    1.2640    0.0440 O.2       1 IPH   -0.6709
      4 C1         -0.3130   -0.7220    1.7260 C.3       1 IPH    0.1435
      5 C2          2.9010    0.8880    1.4240 C.3       1 IPH    0.0617
      6 C3          0.1870   -2.1090    1.8890 C.2       1 IPH   -0.0410
      7 C4          4.2540    0.3200    1.6640 C.2       1 IPH   -0.0773
      8 C5          1.2140   -2.4250    2.6790 C.2       1 IPH   -0.0984
      9 C6          5.3640    0.8700    1.1720 C.2       1 IPH   -0.1021
     10 H11        -1.4190   -0.6780    1.8170 H         1 IPH    0.0918
     11 H12         0.0470   -0.0400    2.5190 H         1 IPH    0.0918
     12 H21         2.9300    1.9570    1.1300 H         1 IPH    0.0472
     13 H22         2.2710    0.8330    2.3310 H         1 IPH    0.0472
     14 H3         -0.3550   -2.8730    1.3280 H         1 IPH    0.0620
     15 H4          4.2840   -0.5840    2.2750 H         1 IPH    0.0580
     16 H51         1.5780   -3.4350    2.7990 H         1 IPH    0.0536
     17 H52         1.7760   -1.7150    3.2640 H         1 IPH    0.0536
     18 H61         6.3520    0.4670    1.3410 H         1 IPH    0.0535
     19 H62         5.3790    1.7590    0.5580 H         1 IPH    0.0535
@<TRIPOS>BOND
     1    1    2 1
     2    1    3 2
     3    1    4 1
     4    2    5 1
     5    4    6 1
     6    4   10 1
     7    4   11 1
     8    5    7 1
     9    5   12 1
    10    5   13 1
    11    6    8 2
    12    6   14 1
    13    7    9 2
    14    7   15 1
    15    8   16 1
    16    8   17 1
    17    9   18 1
    18    9   19 1
@<TRIPOS>SUBSTRUCTURE
     1 IPH     1 RESIDUE           4 A     IPH     0 ROOT
