@<TRIPOS>MOLECULE
biculinaPM7.pdb
45 50 1 0 0
SMALL
AMBER ff14SB


@<TRIPOS>ATOM
      1 O1         -1.3360   -0.0540   -4.3850 O.3       1 HET   -0.2975
      2 O2          4.9270   -0.0540   -4.3850 O.3       1 HET   -0.3160
      3 O3          5.8380    2.1250   -4.3850 O.3       1 HET   -0.3160
      4 O4         -4.3880    2.6960   -2.3010 O.3       1 HET   -0.3151
      5 O5         -3.3460    4.0390   -0.6670 O.3       1 HET   -0.3160
      6 O6         -3.5700   -0.0540   -4.3850 O.2       1 HET   -0.2606
      7 N          -0.5600    2.7540   -5.3050 N.4       1 HET    0.2524
      8 C1          0.3110    1.5140   -5.0680 C.3       1 HET    0.0344
      9 C2         -0.2690    0.7070   -3.8380 C.3       1 HET    0.1392
     10 C3          1.7730    1.7920   -4.9020 C.ar      1 HET    0.0080
     11 C4          0.0230    3.9950   -4.6690 C.3       1 HET   -0.0299
     12 C5          2.3180    3.0700   -4.9170 C.ar      1 HET   -0.0312
     13 C6          1.4450    4.2660   -5.1360 C.3       1 HET    0.0122
     14 C7         -0.8680    1.5990   -2.8000 C.ar      1 HET    0.0036
     15 C8         -2.2970    1.5600   -3.0500 C.ar      1 HET    0.0862
     16 C9          2.5940    0.6480   -4.7360 C.ar      1 HET   -0.0198
     17 C10        -0.7760    2.9600   -6.7750 C.3       1 HET   -0.0448
     18 C11         3.7040    3.2930   -4.7490 C.ar      1 HET   -0.0250
     19 C12        -2.6020    0.4730   -3.9140 C.2       1 HET    0.2966
     20 C13         3.9340    0.8730   -4.5640 C.ar      1 HET    0.1089
     21 C14        -0.2750    2.3290   -1.7940 C.ar      1 HET   -0.0525
     22 C15         4.4830    2.1820   -4.5700 C.ar      1 HET    0.1086
     23 C16        -3.0380    2.4300   -2.2470 C.ar      1 HET    0.1221
     24 C17        -2.4170    3.2220   -1.2860 C.ar      1 HET    0.1092
     25 C18        -1.0510    3.2010   -1.0060 C.ar      1 HET   -0.0285
     26 C19         6.1460    0.7150   -4.2440 C.3       1 HET    0.1585
     27 C20        -4.6010    3.7120   -1.2960 C.3       1 HET    0.1585
     28 H1          0.1710    0.8360   -5.9630 H         1 HET    0.0938
     29 H2          0.4700   -0.0290   -3.4620 H         1 HET    0.0727
     30 H41        -0.0010    3.8430   -3.5500 H         1 HET    0.0818
     31 H42        -0.6440    4.8590   -4.8770 H         1 HET    0.0818
     32 H61         1.8410    5.1540   -4.5920 H         1 HET    0.0371
     33 H62         1.4760    4.5600   -6.2080 H         1 HET    0.0371
     34 H9          2.1820   -0.3620   -4.7470 H         1 HET    0.0657
     35 H101       -1.4080    2.1470   -7.1870 H         1 HET    0.0777
     36 H102        0.1780    2.9650   -7.3290 H         1 HET    0.0777
     37 H103       -1.2930    3.9150   -6.9680 H         1 HET    0.0777
     38 H11         4.1260    4.2930   -4.7660 H         1 HET    0.0655
     39 H14         0.7940    2.2530   -1.6110 H         1 HET    0.0628
     40 H18        -0.6220    3.7930   -0.2160 H         1 HET    0.0652
     41 H191        6.8170    0.4360   -5.0680 H         1 HET    0.0893
     42 H192        6.5300    0.5570   -3.2260 H         1 HET    0.0893
     43 H201       -5.2640    3.2910   -0.5280 H         1 HET    0.0893
     44 H202       -4.9660    4.6100   -1.8090 H         1 HET    0.0893
     45 H          -1.5190    2.5720   -4.8340 H         1 HET    0.2006
@<TRIPOS>BOND
     1    1    9 1
     2    1   19 1
     3    2   20 1
     4    2   26 1
     5    3   22 1
     6    3   26 1
     7    4   23 1
     8    4   27 1
     9    5   24 1
    10    5   27 1
    11    6   19 2
    12    7    8 1
    13    7   11 1
    14    7   17 1
    15    7   45 1
    16    8    9 1
    17    8   10 1
    18    8   28 1
    19    9   14 1
    20    9   29 1
    21   10   12 ar
    22   10   16 ar
    23   11   13 1
    24   11   30 1
    25   11   31 1
    26   12   13 1
    27   12   18 ar
    28   13   32 1
    29   13   33 1
    30   14   15 ar
    31   14   21 ar
    32   15   19 1
    33   15   23 ar
    34   16   20 ar
    35   16   34 1
    36   17   35 1
    37   17   36 1
    38   17   37 1
    39   18   22 ar
    40   18   38 1
    41   20   22 ar
    42   21   25 ar
    43   21   39 1
    44   23   24 ar
    45   24   25 ar
    46   25   40 1
    47   26   41 1
    48   26   42 1
    49   27   43 1
    50   27   44 1
@<TRIPOS>SUBSTRUCTURE
     1 HET     1 RESIDUE           4 A     HET     0 ROOT
