REMARK  0 active torsions:
REMARK  status: ('A' for Active; 'I' for Inactive)
ROOT
ATOM      1  O1  HET A   1      -0.167   0.195   0.820  0.00  0.00    -0.315 OA
ATOM      2  O2  HET A   1       2.196   0.195   0.820  0.00  0.00    -0.316 OA
ATOM      3  O3  HET A   1      -5.667   7.878   0.820  0.00  0.00    -0.316 OA
ATOM      4  O4  HET A   1      -4.674   9.726   1.901  0.00  0.00    -0.316 OA
ATOM      5  N   HET A   1      -2.516   3.684   1.793  0.00  0.00    -0.309 N 
ATOM      6  C1  HET A   1      -1.855   4.927   1.914  0.00  0.00     0.048 C 
ATOM      7  C2  HET A   1      -0.458   4.918   2.100  0.00  0.00     0.005 C 
ATOM      8  C3  HET A   1       0.315   3.729   1.823  0.00  0.00    -0.005 A 
ATOM      9  C4  HET A   1      -2.564   6.175   1.859  0.00  0.00     0.007 C 
ATOM     10  C5  HET A   1      -0.424   2.552   1.497  0.00  0.00     0.030 A 
ATOM     11  C6  HET A   1      -1.920   7.320   2.387  0.00  0.00    -0.014 C 
ATOM     12  C7  HET A   1      -1.840   2.561   1.572  0.00  0.00     0.086 C 
ATOM     13  C8  HET A   1       0.312   1.418   1.171  0.00  0.00     0.117 A 
ATOM     14  C9  HET A   1       0.169   6.102   2.572  0.00  0.00     0.011 C 
ATOM     15  C10 HET A   1      -0.553   7.244   2.778  0.00  0.00     0.010 C 
ATOM     16  C11 HET A   1      -3.843   6.307   1.235  0.00  0.00     0.047 C 
ATOM     17  C12 HET A   1       1.718   3.705   1.824  0.00  0.00     0.012 A 
ATOM     18  C13 HET A   1       1.718   1.426   1.174  0.00  0.00     0.109 A 
ATOM     19  C14 HET A   1      -2.588   8.581   2.482  0.00  0.00     0.045 C 
ATOM     20  C15 HET A   1      -4.453   7.521   1.318  0.00  0.00     0.109 A 
ATOM     21  C16 HET A   1      -3.841   8.650   1.962  0.00  0.00     0.109 A 
ATOM     22  C17 HET A   1      -3.953   3.555   2.083  0.00  0.00     0.136 C 
ATOM     23  C18 HET A   1       2.445   2.557   1.499  0.00  0.00     0.037 A 
ATOM     24  C19 HET A   1       1.022  -0.618   0.579  0.00  0.00     0.337 A 
ATOM     25  C20 HET A   1      -5.842   9.276   1.170  0.00  0.00     0.337 A 
ENDROOT
TORSDOF 0
