REMARK  0 active torsions:
REMARK  status: ('A' for Active; 'I' for Inactive)
ROOT
ATOM      1  O1  HET A   1       0.677  -0.330  -0.302  0.00  0.00    -0.366 OA
ATOM      2  O2  HET A   1       7.867  -0.330  -0.302  0.00  0.00    -0.300 OA
ATOM      3  O3  HET A   1       9.500   1.196  -0.302  0.00  0.00    -0.261 OA
ATOM      4  C1  HET A   1       0.701  -1.268  -1.386  0.00  0.00     0.092 A 
ATOM      5  C2  HET A   1       1.907  -1.028  -0.526  0.00  0.00     0.151 A 
ATOM      6  C3  HET A   1       0.629  -0.630  -2.755  0.00  0.00     0.042 C 
ATOM      7  C4  HET A   1       2.307  -2.011   0.544  0.00  0.00     0.039 C 
ATOM      8  C5  HET A   1      -0.157  -2.486  -1.189  0.00  0.00     0.045 C 
ATOM      9  C6  HET A   1       1.389  -1.456  -3.807  0.00  0.00     0.030 C 
ATOM     10  C7  HET A   1       3.653  -1.649   1.187  0.00  0.00     0.033 C 
ATOM     11  C8  HET A   1       4.785  -1.710   0.203  0.00  0.00    -0.074 C 
ATOM     12  C9  HET A   1       2.860  -1.350  -3.577  0.00  0.00    -0.028 C 
ATOM     13  C10 HET A   1       6.640  -0.571  -1.028  0.00  0.00     0.178 A 
ATOM     14  C11 HET A   1       5.523  -0.620  -0.047  0.00  0.00     0.009 C 
ATOM     15  C12 HET A   1       3.669  -0.470  -4.181  0.00  0.00    -0.077 C 
ATOM     16  C13 HET A   1       6.513   0.613  -1.979  0.00  0.00    -0.028 A 
ATOM     17  C14 HET A   1       5.121  -0.392  -3.805  0.00  0.00     0.035 C 
ATOM     18  C15 HET A   1       5.318   0.782  -2.826  0.00  0.00     0.039 C 
ATOM     19  C16 HET A   1       5.021  -3.031  -0.449  0.00  0.00     0.039 C 
ATOM     20  C17 HET A   1       7.582   1.414  -1.824  0.00  0.00     0.024 A 
ATOM     21  C18 HET A   1       3.216   0.497  -5.222  0.00  0.00     0.039 C 
ATOM     22  C19 HET A   1       8.458   0.834  -0.766  0.00  0.00     0.289 A 
ATOM     23  C20 HET A   1       7.954   2.671  -2.486  0.00  0.00     0.051 C 
ENDROOT
TORSDOF 0
