REMARK  2 active torsions:
REMARK  status: ('A' for Active; 'I' for Inactive)
REMARK    1  A    between atoms: O3_3  and  C13_18 
REMARK    2  A    between atoms: O4_4  and  C17_22 
ROOT
ATOM      1  O1  HET A   1       0.481   0.194  -1.471  0.00  0.00    -0.316 OA
ATOM      2  O2  HET A   1       2.843   0.194  -1.471  0.00  0.00    -0.316 OA
ATOM      3  N   HET A   1      -1.027   5.261  -2.149  0.00  0.00    -0.309 N 
ATOM      4  C1  HET A   1       0.283   5.127  -1.649  0.00  0.00     0.048 C 
ATOM      5  C2  HET A   1       0.943   6.290  -1.213  0.00  0.00     0.005 C 
ATOM      6  C3  HET A   1       0.937   3.850  -1.568  0.00  0.00     0.007 C 
ATOM      7  C4  HET A   1       0.189   7.492  -0.962  0.00  0.00    -0.005 A 
ATOM      8  C5  HET A   1      -1.190   7.488  -1.285  0.00  0.00     0.029 A 
ATOM      9  C6  HET A   1       2.346   3.848  -1.433  0.00  0.00    -0.014 C 
ATOM     10  C7  HET A   1      -1.760   6.355  -1.924  0.00  0.00     0.086 C 
ATOM     11  C8  HET A   1       2.352   6.240  -1.035  0.00  0.00     0.011 C 
ATOM     12  C9  HET A   1       0.215   2.618  -1.530  0.00  0.00     0.047 C 
ATOM     13  C10 HET A   1       3.039   5.073  -1.213  0.00  0.00     0.010 C 
ATOM     14  C11 HET A   1       3.094   2.630  -1.442  0.00  0.00     0.045 C 
ATOM     15  C12 HET A   1       0.946   1.472  -1.504  0.00  0.00     0.109 A 
ATOM     16  C13 HET A   1      -1.969   8.649  -1.026  0.00  0.00     0.114 A 
ATOM     17  C14 HET A   1       0.760   8.634  -0.376  0.00  0.00     0.012 A 
ATOM     18  C15 HET A   1       2.382   1.474  -1.487  0.00  0.00     0.109 A 
ATOM     19  C16 HET A   1      -1.604   4.258  -3.060  0.00  0.00     0.136 C 
ATOM     20  C17 HET A   1      -1.373   9.768  -0.452  0.00  0.00     0.105 A 
ATOM     21  C18 HET A   1      -0.009   9.754  -0.117  0.00  0.00     0.037 A 
ATOM     22  C19 HET A   1       1.663  -0.649  -1.449  0.00  0.00     0.337 A 
ENDROOT
BRANCH  16  23
ATOM     23  O3  HET A   1      -3.239   8.566  -1.471  0.00  0.00    -0.346 OA
ATOM     24  C20 HET A   1      -4.251   9.125  -0.626  0.00  0.00     0.203 C 
ENDBRANCH  16  23
BRANCH  20  25
ATOM     25  O4  HET A   1      -2.108  10.866  -0.096  0.00  0.00    -0.347 OA
ATOM     26  C21 HET A   1      -2.143  11.861  -1.124  0.00  0.00     0.203 C 
ENDBRANCH  20  25
TORSDOF 2
