@<TRIPOS>MOLECULE
coptisine.pdb
38 43 1 0 0
SMALL
AMBER ff14SB


@<TRIPOS>ATOM
      1 O1         -0.2940   -0.0200    0.1380 O.3       1 HET   -0.3160
      2 O2          2.0670   -0.0200    0.1380 O.3       1 HET   -0.3160
      3 O3         -1.9850    9.8340    0.1380 O.3       1 HET   -0.3153
      4 O4         -4.1500   10.0080   -0.7930 O.3       1 HET   -0.3160
      5 N           0.1330    6.0520    0.3830 N.ar      1 HET   -0.3057
      6 C1          1.5050    5.9230    0.9320 C.3       1 HET    0.0201
      7 C2         -0.5150    4.8980   -0.0900 C.ar      1 HET    0.0408
      8 C3          2.3110    4.9290    0.0910 C.3       1 HET   -0.0109
      9 C4          0.1970    3.6260    0.0190 C.ar      1 HET    0.0020
     10 C5          1.5960    3.6160    0.0600 C.ar      1 HET   -0.0345
     11 C6         -1.7530    7.4000   -0.2030 C.ar      1 HET    0.0290
     12 C7         -0.4560    7.2520    0.3360 C.ar      1 HET    0.0064
     13 C8         -1.7680    5.0140   -0.6470 C.ar      1 HET   -0.0320
     14 C9         -2.4450    6.2600   -0.7230 C.ar      1 HET   -0.0124
     15 C10        -0.5460    2.4210    0.0620 C.ar      1 HET   -0.0195
     16 C11         2.3350    2.4200    0.0880 C.ar      1 HET   -0.0250
     17 C12        -2.4300    8.6180   -0.2810 C.ar      1 HET    0.1174
     18 C13         0.1800    1.2610    0.0990 C.ar      1 HET    0.1090
     19 C14         1.6030    1.2570    0.1020 C.ar      1 HET    0.1087
     20 C15        -3.7370    6.3870   -1.2790 C.ar      1 HET   -0.0515
     21 C16        -3.7120    8.7150   -0.8350 C.ar      1 HET    0.1090
     22 C17        -4.3900    7.6100   -1.3440 C.ar      1 HET   -0.0283
     23 C18         0.8840   -0.8640    0.1600 C.3       1 HET    0.1585
     24 C19        -3.0720   10.7570   -0.1750 C.3       1 HET    0.1585
     25 H11         1.4260    5.5630    1.9920 H         1 HET    0.0476
     26 H12         2.0080    6.9170    0.9600 H         1 HET    0.0476
     27 H31         3.3370    4.8290    0.5140 H         1 HET    0.0333
     28 H32         2.4700    5.3030   -0.9470 H         1 HET    0.0333
     29 H7          0.0800    8.1400    0.7200 H         1 HET    0.0800
     30 H8         -2.2660    4.1250   -1.0560 H         1 HET    0.0650
     31 H10        -1.6340    2.4120    0.0790 H         1 HET    0.0659
     32 H11         3.4230    2.4160    0.1010 H         1 HET    0.0655
     33 H15        -4.2340    5.4920   -1.6680 H         1 HET    0.0630
     34 H17        -5.3910    7.7120   -1.7730 H         1 HET    0.0652
     35 H181        0.8870   -1.4180    1.1110 H         1 HET    0.0893
     36 H182        0.8870   -1.4660   -0.7620 H         1 HET    0.0893
     37 H191       -2.6910   11.4780   -0.9140 H         1 HET    0.0893
     38 H192       -3.4440   11.1660    0.7770 H         1 HET    0.0893
@<TRIPOS>BOND
     1    1   18 1
     2    1   23 1
     3    2   19 1
     4    2   23 1
     5    3   17 1
     6    3   24 1
     7    4   21 1
     8    4   24 1
     9    5    6 1
    10    5    7 ar
    11    5   12 ar
    12    6    8 1
    13    6   25 1
    14    6   26 1
    15    7    9 1
    16    7   13 ar
    17    8   10 1
    18    8   27 1
    19    8   28 1
    20    9   10 ar
    21    9   15 ar
    22   10   16 ar
    23   11   12 ar
    24   11   14 ar
    25   11   17 ar
    26   12   29 1
    27   13   14 ar
    28   13   30 1
    29   14   20 ar
    30   15   18 ar
    31   15   31 1
    32   16   19 ar
    33   16   32 1
    34   17   21 ar
    35   18   19 ar
    36   20   22 ar
    37   20   33 1
    38   21   22 ar
    39   22   34 1
    40   23   35 1
    41   23   36 1
    42   24   37 1
    43   24   38 1
@<TRIPOS>SUBSTRUCTURE
     1 HET     1 RESIDUE           4 A     HET     0 ROOT
