@<TRIPOS>MOLECULE
cytisine.pdb
29 31 1 0 0
SMALL
AMBER ff14SB


@<TRIPOS>ATOM
      1 O           0.5670    0.0850    0.4790 O.2       1 HET   -0.2720
      2 N1          2.8160    0.0850    0.4790 N.am      1 HET   -0.2709
      3 N2          4.4770    2.5610    0.4790 N.4       1 HET    0.2399
      4 C1          4.0410    1.0700    2.4610 C.3       1 HET    0.0149
      5 C2          5.3040    0.1940    0.5210 C.3       1 HET    0.0368
      6 C3          5.2060    0.1690    2.0480 C.3       1 HET   -0.0307
      7 C4          2.7360    0.4850    1.9010 C.3       1 HET    0.0271
      8 C5          4.2940    2.5130    1.9890 C.3       1 HET   -0.0318
      9 C6          5.6030    1.6330    0.0480 C.3       1 HET   -0.0280
     10 C7          4.0150   -0.2740   -0.1160 C.2       1 HET    0.0211
     11 C8          4.0320   -0.9260   -1.3170 C.2       1 HET   -0.0440
     12 C9          1.5520   -0.2760   -0.1210 C.2       1 HET    0.2422
     13 C10         2.8070   -1.3160   -1.9430 C.2       1 HET   -0.0554
     14 C11         1.6200   -0.9910   -1.3770 C.2       1 HET    0.0012
     15 H1          3.9570    1.0890    3.5830 H         1 HET    0.0374
     16 H2          6.1470   -0.4740    0.1910 H         1 HET    0.0421
     17 H31         5.0420   -0.8720    2.4080 H         1 HET    0.0281
     18 H32         6.1570    0.4790    2.5220 H         1 HET    0.0281
     19 H41         2.4350   -0.4120    2.5050 H         1 HET    0.0479
     20 H42         1.8840    1.2040    2.0160 H         1 HET    0.0479
     21 H51         3.4390    3.1760    2.2640 H         1 HET    0.0817
     22 H52         5.2040    2.9280    2.4830 H         1 HET    0.0817
     23 H61         6.5680    1.9930    0.4750 H         1 HET    0.0821
     24 H62         5.6970    1.6730   -1.0630 H         1 HET    0.0821
     25 H11         0.6540   -1.2690   -1.8120 H         1 HET    0.0679
     26 H8          4.9670   -1.1760   -1.8140 H         1 HET    0.0639
     27 H10         2.8590   -1.8780   -2.8830 H         1 HET    0.0625
     28 H21         3.5860    2.2290    0.0310 H         1 HET    0.1981
     29 H22         4.6650    3.5330    0.1630 H         1 HET    0.1981
@<TRIPOS>BOND
     1    1   12 2
     2    2    7 1
     3    2   10 1
     4    2   12 am
     5    3    8 1
     6    3    9 1
     7    3   28 1
     8    3   29 1
     9    4    6 1
    10    4    7 1
    11    4    8 1
    12    4   15 1
    13    5    6 1
    14    5    9 1
    15    5   10 1
    16    5   16 1
    17    6   17 1
    18    6   18 1
    19    7   19 1
    20    7   20 1
    21    8   21 1
    22    8   22 1
    23    9   23 1
    24    9   24 1
    25   10   11 2
    26   11   13 2
    27   11   26 1
    28   12   14 1
    29   13   14 2
    30   13   27 1
    31   14   25 1
@<TRIPOS>SUBSTRUCTURE
     1 HET     1 RESIDUE           4 A     HET     0 ROOT
