REMARK  0 active torsions:
REMARK  status: ('A' for Active; 'I' for Inactive)
ROOT
ATOM      1  O   HET A   1       0.567   0.085   0.479  0.00  0.00    -0.272 OA
ATOM      2  N1  HET A   1       2.816   0.085   0.479  0.00  0.00    -0.271 N 
ATOM      3  N2  HET A   1       4.477   2.561   0.479  0.00  0.00     0.240 N 
ATOM      4  C1  HET A   1       4.041   1.070   2.461  0.00  0.00     0.052 C 
ATOM      5  C2  HET A   1       5.304   0.194   0.521  0.00  0.00     0.079 C 
ATOM      6  C3  HET A   1       5.206   0.169   2.048  0.00  0.00     0.025 C 
ATOM      7  C4  HET A   1       2.736   0.485   1.901  0.00  0.00     0.123 C 
ATOM      8  C5  HET A   1       4.294   2.513   1.989  0.00  0.00     0.132 C 
ATOM      9  C6  HET A   1       5.603   1.633   0.048  0.00  0.00     0.136 C 
ATOM     10  C7  HET A   1       4.015  -0.274  -0.116  0.00  0.00     0.021 A 
ATOM     11  C8  HET A   1       4.032  -0.926  -1.317  0.00  0.00     0.020 A 
ATOM     12  C9  HET A   1       1.552  -0.276  -0.121  0.00  0.00     0.242 A 
ATOM     13  C10 HET A   1       2.807  -1.316  -1.943  0.00  0.00     0.007 A 
ATOM     14  C11 HET A   1       1.620  -0.991  -1.377  0.00  0.00     0.069 A 
ATOM     15  H21 HET A   1       3.586   2.229   0.031  0.00  0.00     0.198 HD
ATOM     16  H22 HET A   1       4.665   3.533   0.163  0.00  0.00     0.198 HD
ENDROOT
TORSDOF 0
