REMARK  2 active torsions:
REMARK  status: ('A' for Active; 'I' for Inactive)
REMARK    1  A    between atoms: O2_2  and  C10_14 
REMARK    2  A    between atoms: O3_3  and  C13_17 
ROOT
ATOM      1  O1  HET A   1       0.060   0.126   0.024  0.00  0.00    -0.338 OA
ATOM      2  N   HET A   1      -1.779  -1.463   4.103  0.00  0.00     0.248 N 
ATOM      3  C1  HET A   1       0.431  -1.304   2.046  0.00  0.00     0.048 C 
ATOM      4  C2  HET A   1       0.347  -1.265   0.467  0.00  0.00     0.143 C 
ATOM      5  C3  HET A   1      -0.158   0.070   2.339  0.00  0.00     0.006 C 
ATOM      6  C4  HET A   1      -0.279  -2.620   2.491  0.00  0.00     0.069 C 
ATOM      7  C5  HET A   1       1.610  -1.722  -0.271  0.00  0.00     0.070 C 
ATOM      8  C6  HET A   1       1.808  -1.322   2.651  0.00  0.00    -0.014 C 
ATOM      9  C7  HET A   1      -0.125   0.838   1.177  0.00  0.00     0.110 C 
ATOM     10  C8  HET A   1      -0.796  -2.632   3.921  0.00  0.00     0.130 C 
ATOM     11  C9  HET A   1      -0.658   0.610   3.540  0.00  0.00     0.003 C 
ATOM     12  C10 HET A   1       2.900  -1.252   0.379  0.00  0.00     0.139 C 
ATOM     13  C11 HET A   1      -1.049  -0.254   4.696  0.00  0.00     0.166 C 
ATOM     14  C12 HET A   1       2.903  -1.332   1.874  0.00  0.00     0.001 C 
ATOM     15  C13 HET A   1      -0.374   2.228   1.210  0.00  0.00     0.105 C 
ATOM     16  C14 HET A   1      -0.925   1.981   3.579  0.00  0.00     0.012 C 
ATOM     17  C15 HET A   1      -0.741   2.781   2.428  0.00  0.00     0.037 C 
ATOM     18  C16 HET A   1      -3.032  -1.879   4.851  0.00  0.00     0.188 C 
ATOM     19  H   HET A   1      -2.079  -1.176   3.123  0.00  0.00     0.200 HD
ENDROOT
BRANCH  15  20
ATOM     20  O3  HET A   1      -0.243   2.873   0.024  0.00  0.00    -0.347 OA
ATOM     21  C17 HET A   1      -0.399   4.297   0.024  0.00  0.00     0.203 C 
ENDBRANCH  15  20
BRANCH  12  22
ATOM     22  O2  HET A   1       3.000   0.126   0.024  0.00  0.00    -0.389 OA
ATOM     23  H22 HET A   1       3.871   0.470   0.328  0.00  0.00     0.211 HD
ENDBRANCH  12  22
TORSDOF 2
