@<TRIPOS>MOLECULE
rotenone.pdb
51 55 1 0 0
SMALL
AMBER ff14SB


@<TRIPOS>ATOM
      1 O1          0.1880    0.1740   -1.2710 O.3       1 HET   -0.3382
      2 O2          2.9840    0.1740   -1.2710 O.3       1 HET   -0.3430
      3 O3         -2.8460    3.6550   -1.2710 O.3       1 HET   -0.3378
      4 O4         -0.3150   -0.5940   -5.2380 O.2       1 HET   -0.2933
      5 O5          3.7940    2.1920   -6.3140 O.3       1 HET   -0.3466
      6 O6          5.3020    3.1100   -4.0330 O.3       1 HET   -0.3465
      7 C1          1.1810   -0.7130   -3.3930 C.3       1 HET    0.0792
      8 C2          0.8760   -0.9090   -1.9090 C.3       1 HET    0.1023
      9 C3         -0.6450    0.9310   -2.0090 C.ar      1 HET    0.0922
     10 C4          2.2960    0.2580   -3.6080 C.ar      1 HET   -0.0013
     11 C5         -0.0650   -0.2090   -4.1220 C.2       1 HET    0.1753
     12 C6          2.1810   -0.9860   -1.1100 C.3       1 HET    0.0811
     13 C7         -1.3310    1.9210   -1.3220 C.ar      1 HET    0.0164
     14 C8         -0.8610    0.7650   -3.3910 C.ar      1 HET    0.0491
     15 C9         -1.3150    2.3580    0.1000 C.3       1 HET    0.0083
     16 C10        -2.3640    3.5080    0.1010 C.3       1 HET    0.0888
     17 C11        -2.2420    2.7180   -2.0390 C.ar      1 HET    0.0817
     18 C12         3.1170    0.6410   -2.5420 C.ar      1 HET    0.0819
     19 C13        -1.7930    1.5670   -4.0610 C.ar      1 HET   -0.0461
     20 C14         2.5330    0.8100   -4.8690 C.ar      1 HET   -0.0224
     21 C15        -2.5040    2.5620   -3.3990 C.ar      1 HET   -0.0306
     22 C16        -3.5420    3.1940    0.9760 C.2       1 HET   -0.0511
     23 C17         4.1460    1.5770   -2.6930 C.ar      1 HET    0.0016
     24 C18         3.5510    1.7400   -5.0390 C.ar      1 HET    0.1052
     25 C19         4.3580    2.1250   -3.9540 C.ar      1 HET    0.1074
     26 C20        -4.6720    2.4860    0.3170 C.3       1 HET   -0.0416
     27 C21        -3.5400    3.5300    2.2680 C.2       1 HET   -0.0975
     28 C22         3.3360    3.5300   -6.5080 C.3       1 HET    0.0423
     29 C23         6.3580    2.8270   -4.9500 C.3       1 HET    0.0423
     30 H1          1.4760   -1.7040   -3.8390 H         1 HET    0.0467
     31 H2          0.2280   -1.8000   -1.7400 H         1 HET    0.0645
     32 H61         2.0000   -0.9810   -0.0160 H         1 HET    0.0601
     33 H62         2.7780   -1.8710   -1.3940 H         1 HET    0.0601
     34 H91        -1.5880    1.5430    0.7960 H         1 HET    0.0348
     35 H92        -0.3160    2.7100    0.4170 H         1 HET    0.0348
     36 H10        -1.9140    4.4990    0.3170 H         1 HET    0.0661
     37 H13        -1.9500    1.4020   -5.1340 H         1 HET    0.0632
     38 H14         1.9220    0.5230   -5.7300 H         1 HET    0.0656
     39 H15        -3.2230    3.1920   -3.9070 H         1 HET    0.0651
     40 H17         4.7620    1.8690   -1.8460 H         1 HET    0.0680
     41 H201       -5.1780    3.1440   -0.4090 H         1 HET    0.0277
     42 H202       -4.3230    1.6080   -0.2500 H         1 HET    0.0277
     43 H203       -5.4320    2.1390    1.0280 H         1 HET    0.0277
     44 H211       -4.3520    3.3100    2.9410 H         1 HET    0.0538
     45 H212       -2.7320    4.0490    2.7560 H         1 HET    0.0538
     46 H221        2.2470    3.5730   -6.4050 H         1 HET    0.0536
     47 H222        3.6380    3.7430   -7.5390 H         1 HET    0.0536
     48 H223        3.8210    4.2160   -5.8060 H         1 HET    0.0536
     49 H231        5.9800    2.6990   -5.9700 H         1 HET    0.0536
     50 H232        6.9090    1.9400   -4.6260 H         1 HET    0.0536
     51 H233        6.9820    3.7250   -4.8730 H         1 HET    0.0536
@<TRIPOS>BOND
     1    1    8 1
     2    1    9 1
     3    2   12 1
     4    2   18 1
     5    3   16 1
     6    3   17 1
     7    4   11 2
     8    5   24 1
     9    5   28 1
    10    6   25 1
    11    6   29 1
    12    7    8 1
    13    7   10 1
    14    7   11 1
    15    7   30 1
    16    8   12 1
    17    8   31 1
    18    9   13 ar
    19    9   14 ar
    20   10   18 ar
    21   10   20 ar
    22   11   14 1
    23   12   32 1
    24   12   33 1
    25   13   15 1
    26   13   17 ar
    27   14   19 ar
    28   15   16 1
    29   15   34 1
    30   15   35 1
    31   16   22 1
    32   16   36 1
    33   17   21 ar
    34   18   23 ar
    35   19   21 ar
    36   19   37 1
    37   20   24 ar
    38   20   38 1
    39   21   39 1
    40   22   26 1
    41   22   27 2
    42   23   25 ar
    43   23   40 1
    44   24   25 ar
    45   26   41 1
    46   26   42 1
    47   26   43 1
    48   27   44 1
    49   27   45 1
    50   28   46 1
    51   28   47 1
    52   28   48 1
    53   29   49 1
    54   29   50 1
    55   29   51 1
@<TRIPOS>SUBSTRUCTURE
     1 HET     1 RESIDUE           4 A     HET     0 ROOT
