REMARK  0 active torsions:
REMARK  status: ('A' for Active; 'I' for Inactive)
ROOT
ATOM      1  O1  AES A   1      -0.178   0.052  -0.146  0.00  0.00    -0.283 OA
ATOM      2  O2  AES A   1       2.804   0.052  -0.146  0.00  0.00    -0.263 OA
ATOM      3  N   AES A   1       2.536   2.372  -0.146  0.00  0.00    -0.206 NA
ATOM      4  C1  AES A   1       0.177   2.439  -0.160  0.00  0.00     0.054 A 
ATOM      5  C2  AES A   1       1.428   3.166  -0.155  0.00  0.00     0.079 A 
ATOM      6  C3  AES A   1       0.525   1.023  -0.151  0.00  0.00     0.254 A 
ATOM      7  C4  AES A   1       2.124   1.045  -0.147  0.00  0.00     0.318 A 
ATOM      8  C5  AES A   1      -1.033   3.099  -0.177  0.00  0.00     0.014 A 
ATOM      9  C6  AES A   1       1.392   4.580  -0.160  0.00  0.00     0.029 A 
ATOM     10  C7  AES A   1      -1.049   4.494  -0.184  0.00  0.00     0.001 A 
ATOM     11  C8  AES A   1       0.161   5.209  -0.175  0.00  0.00     0.002 A 
ENDROOT
TORSDOF 0
