@<TRIPOS>MOLECULE
protoberberine.pdb
32 35 1 0 0
SMALL
AMBER ff14SB


@<TRIPOS>ATOM
      1 N          -0.0900   -0.1060   -0.0670 N.ar      1 HET   -0.3058
      2 C1          1.3950   -0.1060   -0.0670 C.3       1 HET    0.0201
      3 C2          1.9200    1.3340   -0.0670 C.3       1 HET   -0.0110
      4 C3         -0.7630    0.8370   -0.8480 C.ar      1 HET    0.0407
      5 C4          1.3540    2.0640   -1.2420 C.ar      1 HET   -0.0373
      6 C5          0.0380    1.7720   -1.6380 C.ar      1 HET   -0.0008
      7 C6         -0.7550   -0.9990    0.6850 C.ar      1 HET    0.0037
      8 C7         -2.1430    0.8600   -0.8200 C.ar      1 HET   -0.0321
      9 C8         -2.1660   -1.0210    0.7190 C.ar      1 HET   -0.0042
     10 C9         -2.8820   -0.0650   -0.0470 C.ar      1 HET   -0.0152
     11 C10         2.1050    3.0030   -1.9420 C.ar      1 HET   -0.0583
     12 C11        -0.4940    2.3920   -2.7730 C.ar      1 HET   -0.0528
     13 C12        -2.8770   -1.9710    1.5060 C.ar      1 HET   -0.0531
     14 C13        -4.3010   -0.0690   -0.0120 C.ar      1 HET   -0.0543
     15 C14         1.5580    3.6350   -3.0580 C.ar      1 HET   -0.0619
     16 C15         0.2660    3.3210   -3.4790 C.ar      1 HET   -0.0616
     17 C16        -4.2470   -1.9530    1.5200 C.ar      1 HET   -0.0616
     18 C17        -4.9640   -0.9930    0.7550 C.ar      1 HET   -0.0616
     19 H11         1.7440   -0.6470   -0.9850 H         1 HET    0.0476
     20 H12         1.7830   -0.6680    0.8140 H         1 HET    0.0476
     21 H21         3.0340    1.3230   -0.0860 H         1 HET    0.0333
     22 H22         1.6590    1.8650    0.8770 H         1 HET    0.0333
     23 H6         -0.1750   -1.7240    1.2820 H         1 HET    0.0799
     24 H7         -2.6870    1.6170   -1.4010 H         1 HET    0.0649
     25 H10         3.1210    3.2450   -1.6240 H         1 HET    0.0626
     26 H11        -1.5000    2.1480   -3.1190 H         1 HET    0.0630
     27 H12        -2.3190   -2.7050    2.0910 H         1 HET    0.0630
     28 H13        -4.8490    0.6700   -0.6020 H         1 HET    0.0629
     29 H14         2.1480    4.3740   -3.6080 H         1 HET    0.0623
     30 H15        -0.1520    3.8050   -4.3650 H         1 HET    0.0623
     31 H16        -4.8100   -2.6750    2.1200 H         1 HET    0.0623
     32 H17        -6.0600   -1.0060    0.7910 H         1 HET    0.0623
@<TRIPOS>BOND
     1    1    2 1
     2    1    4 ar
     3    1    7 ar
     4    2    3 1
     5    2   19 1
     6    2   20 1
     7    3    5 1
     8    3   21 1
     9    3   22 1
    10    4    6 1
    11    4    8 ar
    12    5    6 ar
    13    5   11 ar
    14    6   12 ar
    15    7    9 ar
    16    7   23 1
    17    8   10 ar
    18    8   24 1
    19    9   10 ar
    20    9   13 ar
    21   10   14 ar
    22   11   15 ar
    23   11   25 1
    24   12   16 ar
    25   12   26 1
    26   13   17 ar
    27   13   27 1
    28   14   18 ar
    29   14   28 1
    30   15   16 ar
    31   15   29 1
    32   16   30 1
    33   17   18 ar
    34   17   31 1
    35   18   32 1
@<TRIPOS>SUBSTRUCTURE
     1 HET     1 RESIDUE           4 A     HET     0 ROOT
