@<TRIPOS>MOLECULE
chelirubine.pdb
43 48 1 0 0
SMALL
AMBER ff14SB


@<TRIPOS>ATOM
      1 O1         -0.0060    0.0010   -0.0180 O.3       1 HET   -0.3153
      2 O2          2.2250    0.0010   -0.0180 O.3       1 HET   -0.3159
      3 O3          2.5480    4.8040   -0.0180 O.3       1 HET   -0.3486
      4 O4         -6.1080    7.5640    0.0140 O.3       1 HET   -0.3160
      5 O5         -4.9750    9.4960    0.0040 O.3       1 HET   -0.3160
      6 N          -2.4720    3.4710   -0.0700 N.ar      1 HET   -0.3086
      7 C1         -1.9260    4.7600   -0.0470 C.ar      1 HET    0.0483
      8 C2         -0.4760    4.8800   -0.0350 C.ar      1 HET    0.0072
      9 C3          0.3700    3.7040   -0.0220 C.ar      1 HET    0.0252
     10 C4         -0.2930    2.4490   -0.0150 C.ar      1 HET    0.0322
     11 C5         -2.7290    5.9910   -0.0390 C.ar      1 HET    0.0066
     12 C6         -2.0520    7.2580   -0.0410 C.ar      1 HET   -0.0137
     13 C7         -1.6840    2.3680   -0.0530 C.ar      1 HET    0.0062
     14 C8          0.4370    1.2670   -0.0040 C.ar      1 HET    0.1177
     15 C9          0.0990    6.1710   -0.0470 C.ar      1 HET   -0.0517
     16 C10         1.8220    3.6650   -0.0160 C.ar      1 HET    0.0859
     17 C11        -0.6540    7.3140   -0.0540 C.ar      1 HET   -0.0535
     18 C12        -4.1650    6.0680   -0.0200 C.ar      1 HET   -0.0192
     19 C13         1.7880    1.2640   -0.0030 C.ar      1 HET    0.1117
     20 C14        -2.7430    8.4950   -0.0270 C.ar      1 HET   -0.0210
     21 C15         2.5200    2.4260   -0.0150 C.ar      1 HET    0.0021
     22 C16        -4.7930    7.3040   -0.0080 C.ar      1 HET    0.1090
     23 C17        -3.9060    3.1520   -0.0630 C.3       1 HET    0.0047
     24 C18        -4.1070    8.4650   -0.0100 C.ar      1 HET    0.1090
     25 C19         1.1140   -0.8410   -0.0140 C.3       1 HET    0.1585
     26 C20        -6.2630    8.9600    0.0190 C.3       1 HET    0.1585
     27 C21         3.9300    4.9060   -0.0250 C.3       1 HET    0.0422
     28 H7         -2.1200    1.3780   -0.1770 H         1 HET    0.0799
     29 H9          1.1470    6.3740   -0.0540 H         1 HET    0.0630
     30 H11        -0.1440    8.2740   -0.0670 H         1 HET    0.0630
     31 H12        -4.8610    5.2670   -0.0050 H         1 HET    0.0659
     32 H14        -2.2210    9.4450   -0.0320 H         1 HET    0.0658
     33 H15         3.6000    2.3630   -0.0410 H         1 HET    0.0680
     34 H171       -4.3790    3.5550    0.8580 H         1 HET    0.0436
     35 H172       -4.3810    3.5200   -0.9970 H         1 HET    0.0436
     36 H173       -4.1310    2.0650   -0.0370 H         1 HET    0.0436
     37 H191        1.1090   -1.4700   -0.9260 H         1 HET    0.0893
     38 H192        1.1050   -1.4560    0.9090 H         1 HET    0.0893
     39 H201       -6.7940    9.2710    0.9410 H         1 HET    0.0893
     40 H202       -6.8150    9.2680   -0.8930 H         1 HET    0.0893
     41 H211        4.3470    4.4410   -0.9410 H         1 HET    0.0535
     42 H212        4.3580    4.4290    0.8800 H         1 HET    0.0535
     43 H213        4.1980    5.9800   -0.0190 H         1 HET    0.0535
@<TRIPOS>BOND
     1    1   14 1
     2    1   25 1
     3    2   19 1
     4    2   25 1
     5    3   16 1
     6    3   27 1
     7    4   22 1
     8    4   26 1
     9    5   24 1
    10    5   26 1
    11    6    7 ar
    12    6   13 ar
    13    6   23 1
    14    7    8 ar
    15    7   11 ar
    16    8    9 ar
    17    8   15 ar
    18    9   10 ar
    19    9   16 ar
    20   10   13 ar
    21   10   14 ar
    22   11   12 ar
    23   11   18 ar
    24   12   17 ar
    25   12   20 ar
    26   13   28 1
    27   14   19 ar
    28   15   17 ar
    29   15   29 1
    30   16   21 ar
    31   17   30 1
    32   18   22 ar
    33   18   31 1
    34   19   21 ar
    35   20   24 ar
    36   20   32 1
    37   21   33 1
    38   22   24 ar
    39   23   34 1
    40   23   35 1
    41   23   36 1
    42   25   37 1
    43   25   38 1
    44   26   39 1
    45   26   40 1
    46   27   41 1
    47   27   42 1
    48   27   43 1
@<TRIPOS>SUBSTRUCTURE
     1 HET     1 RESIDUE           4 A     HET     0 ROOT
