161243
  -OEChem-08292522323D

 43 48  0     0  0  0  0  0  0999 V2000
    4.1462   -2.3531    0.0667 O   0  0  0  0  0  0  0  0  0  0  0  0
    5.7912   -0.6034   -0.0595 O   0  0  0  0  0  0  0  0  0  0  0  0
    2.5415    2.8461   -0.2514 O   0  0  0  0  0  0  0  0  0  0  0  0
   -5.2899   -1.7591    0.1140 O   0  0  0  0  0  0  0  0  0  0  0  0
   -6.0770    0.5126   -0.0228 O   0  0  0  0  0  0  0  0  0  0  0  0
   -0.0467   -1.5668    0.0529 N   0  3  0  0  0  0  0  0  0  0  0  0
   -0.5539   -0.3182   -0.0229 C   0  0  0  0  0  0  0  0  0  0  0  0
    0.3666    0.7670   -0.1005 C   0  0  0  0  0  0  0  0  0  0  0  0
    1.7781    0.5031   -0.0958 C   0  0  0  0  0  0  0  0  0  0  0  0
    2.2073   -0.8398   -0.0131 C   0  0  0  0  0  0  0  0  0  0  0  0
   -1.9699   -0.1119   -0.0233 C   0  0  0  0  0  0  0  0  0  0  0  0
   -2.4619    1.2237   -0.1045 C   0  0  0  0  0  0  0  0  0  0  0  0
    1.2579   -1.8494    0.0602 C   0  0  0  0  0  0  0  0  0  0  0  0
    3.5738   -1.1160   -0.0071 C   0  0  0  0  0  0  0  0  0  0  0  0
   -0.1826    2.0620   -0.1789 C   0  0  0  0  0  0  0  0  0  0  0  0
    2.7953    1.5059   -0.1694 C   0  0  0  0  0  0  0  0  0  0  0  0
   -1.5603    2.2851   -0.1810 C   0  0  0  0  0  0  0  0  0  0  0  0
   -2.9228   -1.1600    0.0528 C   0  0  0  0  0  0  0  0  0  0  0  0
    4.5192   -0.1226   -0.0790 C   0  0  0  0  0  0  0  0  0  0  0  0
   -3.8434    1.4902   -0.1084 C   0  0  0  0  0  0  0  0  0  0  0  0
    4.1614    1.2004   -0.1611 C   0  0  0  0  0  0  0  0  0  0  0  0
   -4.2711   -0.8591    0.0464 C   0  0  0  0  0  0  0  0  0  0  0  0
   -0.7883   -2.8241    0.1356 C   0  0  0  0  0  0  0  0  0  0  0  0
   -4.7195    0.4314   -0.0317 C   0  0  0  0  0  0  0  0  0  0  0  0
    5.5473   -2.0196    0.0343 C   0  0  0  0  0  0  0  0  0  0  0  0
   -6.4335   -0.8817    0.0697 C   0  0  0  0  0  0  0  0  0  0  0  0
    2.4349    3.5575    0.9778 C   0  0  0  0  0  0  0  0  0  0  0  0
    1.5815   -2.8845    0.1244 H   0  0  0  0  0  0  0  0  0  0  0  0
    0.3943    2.9631   -0.3057 H   0  0  0  0  0  0  0  0  0  0  0  0
   -1.9180    3.3108   -0.2569 H   0  0  0  0  0  0  0  0  0  0  0  0
   -2.8000   -2.2174    0.1209 H   0  0  0  0  0  0  0  0  0  0  0  0
   -4.2229    2.5063   -0.1696 H   0  0  0  0  0  0  0  0  0  0  0  0
    4.9157    1.9784   -0.2191 H   0  0  0  0  0  0  0  0  0  0  0  0
   -1.3221   -2.8546    1.0898 H   0  0  0  0  0  0  0  0  0  0  0  0
   -1.3418   -2.9674   -0.7968 H   0  0  0  0  0  0  0  0  0  0  0  0
   -0.1370   -3.7060    0.1810 H   0  0  0  0  0  0  0  0  0  0  0  0
    6.0061   -2.5137   -0.8298 H   0  0  0  0  0  0  0  0  0  0  0  0
    6.0198   -2.3983    0.9479 H   0  0  0  0  0  0  0  0  0  0  0  0
   -7.0278   -1.0329    0.9782 H   0  0  0  0  0  0  0  0  0  0  0  0
   -7.0459   -1.1463   -0.8001 H   0  0  0  0  0  0  0  0  0  0  0  0
    3.4348    3.7453    1.3820 H   0  0  0  0  0  0  0  0  0  0  0  0
    1.8413    3.0113    1.7184 H   0  0  0  0  0  0  0  0  0  0  0  0
    1.9573    4.5216    0.7815 H   0  0  0  0  0  0  0  0  0  0  0  0
  1 14  1  0  0  0  0
  1 25  1  0  0  0  0
  2 19  1  0  0  0  0
  2 25  1  0  0  0  0
  3 16  1  0  0  0  0
  3 27  1  0  0  0  0
  4 22  1  0  0  0  0
  4 26  1  0  0  0  0
  5 24  1  0  0  0  0
  5 26  1  0  0  0  0
  6  7  1  0  0  0  0
  6 13  2  0  0  0  0
  6 23  1  0  0  0  0
  7  8  2  0  0  0  0
  7 11  1  0  0  0  0
  8  9  1  0  0  0  0
  8 15  1  0  0  0  0
  9 10  1  0  0  0  0
  9 16  2  0  0  0  0
 10 13  1  0  0  0  0
 10 14  2  0  0  0  0
 11 12  1  0  0  0  0
 11 18  2  0  0  0  0
 12 17  1  0  0  0  0
 12 20  2  0  0  0  0
 13 28  1  0  0  0  0
 14 19  1  0  0  0  0
 15 17  2  0  0  0  0
 15 29  1  0  0  0  0
 16 21  1  0  0  0  0
 17 30  1  0  0  0  0
 18 22  1  0  0  0  0
 18 31  1  0  0  0  0
 19 21  2  0  0  0  0
 20 24  1  0  0  0  0
 20 32  1  0  0  0  0
 21 33  1  0  0  0  0
 22 24  2  0  0  0  0
 23 34  1  0  0  0  0
 23 35  1  0  0  0  0
 23 36  1  0  0  0  0
 25 37  1  0  0  0  0
 25 38  1  0  0  0  0
 26 39  1  0  0  0  0
 26 40  1  0  0  0  0
 27 41  1  0  0  0  0
 27 42  1  0  0  0  0
 27 43  1  0  0  0  0
M  CHG  1   6   1
M  END
> <PUBCHEM_COMPOUND_CID>
161243

> <PUBCHEM_CONFORMER_RMSD>
0.6

> <PUBCHEM_CONFORMER_DIVERSEORDER>
1

> <PUBCHEM_MMFF94_PARTIAL_CHARGES>
28
1 -0.36
13 0.21
14 0.08
15 -0.15
16 0.08
17 -0.15
18 -0.15
19 0.08
2 -0.36
20 -0.15
21 -0.15
22 0.08
23 0.49
24 0.08
25 0.56
26 0.56
27 0.28
28 0.15
29 0.15
3 -0.36
30 0.15
31 0.15
32 0.15
33 0.15
4 -0.36
5 -0.36
6 -0.21
7 0.36

> <PUBCHEM_EFFECTIVE_ROTOR_COUNT>
2.2

> <PUBCHEM_PHARMACOPHORE_FEATURES>
11
1 1 acceptor
1 2 acceptor
1 3 acceptor
1 4 acceptor
1 5 acceptor
5 1 2 14 19 25 rings
5 4 5 22 24 26 rings
6 11 12 18 20 22 24 rings
6 6 7 8 9 10 13 rings
6 7 8 11 12 15 17 rings
6 9 10 14 16 19 21 rings

> <PUBCHEM_HEAVY_ATOM_COUNT>
27

> <PUBCHEM_ATOM_DEF_STEREO_COUNT>
0

> <PUBCHEM_ATOM_UDEF_STEREO_COUNT>
0

> <PUBCHEM_BOND_DEF_STEREO_COUNT>
0

> <PUBCHEM_BOND_UDEF_STEREO_COUNT>
0

> <PUBCHEM_ISOTOPIC_ATOM_COUNT>
0

> <PUBCHEM_COMPONENT_COUNT>
1

> <PUBCHEM_CACTVS_TAUTO_COUNT>
1

> <PUBCHEM_CONFORMER_ID>
000275DB00000001

> <PUBCHEM_MMFF94_ENERGY>
136.5212

> <PUBCHEM_FEATURE_SELFOVERLAP>
56.204

> <PUBCHEM_SHAPE_FINGERPRINT>
10 15 18337100255620462328
10411042 1 18338798893278767414
10967382 1 18337954600986187004
1100329 8 18410572924347789866
11045977 3 18187650223450632611
11578080 2 16986574602346804522
11607047 403 16119892382946048267
12107183 9 17617095806882184227
12166972 35 17967820427013253388
12236239 1 17988925578752451975
12403259 226 18336541634150491292
12403259 415 18187074062061887925
12403260 363 18410858745799560584
12788726 201 17774738509953750440
13140716 1 18193550293245105818
13402501 40 18409167705484564847
13533116 47 18341050812686937737
138480 1 18410855486457959756
13862211 1 18409446964274377771
14341114 176 18410578383197962240
14790565 3 18411142446175920513
14955137 171 18130507444640200126
15196674 1 18409730651275037125
15927050 60 17910392024499068900
17492 89 18122623855975447966
17844677 252 18412832378151697793
18681886 176 18342731914610822850
19591789 44 18410009948782333029
200 152 18272650134567639721
20028762 73 18272366473258267567
21033648 29 17676752241441539557
21133410 127 17825377742011131397
21236236 1 18339643335320112377
21267235 1 18409455773726873647
21279426 13 18336544893787458997
21682296 61 18199757942390496350
21792934 111 18413101759091450969
21859007 373 17824515557395764061
221357 26 18410011014029220036
221490 88 18336270114838913752
22182313 1 18042944593040619789
22393880 68 18041267782426925037
23402539 116 18413384337246970095
23522609 53 18122097297011036860
23559900 14 18410288133724775113
3004659 81 18187366511238818862
3178227 256 18335995198372366035
335352 9 18410293605402009399
350125 39 18409731750739445509
3680242 22 18263363603298288858
4073 2 18041003998220202795
4093350 32 16845299375786401196
4214541 1 18410012100867195789
465052 167 18342179964126571406
5104073 3 18412262809252656560
59755656 215 18335703801879114255
6138700 20 18335703793236288994
9709674 26 18335706090959065115
9981440 41 17617373330890610784

> <PUBCHEM_SHAPE_MULTIPOLES>
521.32
12.86
3.17
0.64
6.96
1.19
-0.03
-4.4
-0.07
-2.24
-0.4
-0.09
0.15
0.32

> <PUBCHEM_SHAPE_SELFOVERLAP>
1216.047

> <PUBCHEM_SHAPE_VOLUME>
266.1

> <PUBCHEM_COORDINATE_TYPE>
2
5
10

$$$$
