@<TRIPOS>MOLECULE
sanguilutine.pdb
53 56 1 0 0
SMALL
AMBER ff14SB


@<TRIPOS>ATOM
      1 O1          0.0360    0.0540    0.0170 O.3       1 HET   -0.3486
      2 O2          5.5700    0.0540    0.0170 O.3       1 HET   -0.3459
      3 O3          4.2060    2.4890    0.0170 O.3       1 HET   -0.3465
      4 O4          2.0780   -8.6890    0.7090 O.3       1 HET   -0.3466
      5 O5         -0.7580   -8.4840    0.6760 O.3       1 HET   -0.3466
      6 N           3.6890   -3.4980    0.2530 N.ar      1 HET   -0.3086
      7 C1          2.2890   -3.6870    0.2590 C.ar      1 HET    0.0483
      8 C2          1.5090   -2.4960    0.1640 C.ar      1 HET    0.0072
      9 C3          2.0850   -1.1580    0.0900 C.ar      1 HET    0.0252
     10 C4          1.6310   -4.9800    0.3530 C.ar      1 HET    0.0066
     11 C5          3.5140   -1.0710    0.0730 C.ar      1 HET    0.0320
     12 C6          0.2160   -5.0280    0.3370 C.ar      1 HET   -0.0137
     13 C7          4.2470   -2.2970    0.1760 C.ar      1 HET    0.0062
     14 C8          0.0890   -2.6050    0.1330 C.ar      1 HET   -0.0517
     15 C9          1.3880    0.0840    0.0320 C.ar      1 HET    0.0859
     16 C10        -0.5310   -3.8230    0.2130 C.ar      1 HET   -0.0535
     17 C11         4.2110    0.1560   -0.0200 C.ar      1 HET    0.1140
     18 C12         2.2530   -6.2710    0.4670 C.ar      1 HET   -0.0193
     19 C13         4.6280   -4.6280    0.3380 C.3       1 HET    0.0047
     20 C14        -0.5340   -6.2320    0.4450 C.ar      1 HET   -0.0212
     21 C15         3.4620    1.3610    0.0010 C.ar      1 HET    0.1080
     22 C16         2.0680    1.2990    0.0030 C.ar      1 HET    0.0020
     23 C17         1.5410   -7.4470    0.5780 C.ar      1 HET    0.1054
     24 C18         0.1040   -7.4460    0.5780 C.ar      1 HET    0.1054
     25 C19        -0.7220    1.2610   -0.0540 C.3       1 HET    0.0422
     26 C20         6.3720    0.9930   -0.6990 C.3       1 HET    0.0424
     27 C21         3.5060    3.7400    0.0170 C.3       1 HET    0.0423
     28 C22         3.4880   -8.8880    0.7050 C.3       1 HET    0.0423
     29 C23        -0.2860   -9.7860    1.0160 C.3       1 HET    0.0423
     30 H7          5.3620   -2.2000    0.1850 H         1 HET    0.0799
     31 H8         -0.5610   -1.7230    0.0440 H         1 HET    0.0630
     32 H10        -1.6290   -3.8910    0.1940 H         1 HET    0.0630
     33 H12         3.3320   -6.4070    0.4780 H         1 HET    0.0659
     34 H131        4.5010   -5.3220   -0.5250 H         1 HET    0.0436
     35 H132        5.6970   -4.3190    0.3090 H         1 HET    0.0436
     36 H133        4.5070   -5.1730    1.3030 H         1 HET    0.0436
     37 H14        -1.6310   -6.2050    0.4370 H         1 HET    0.0658
     38 H16         1.4940    2.2310   -0.0080 H         1 HET    0.0680
     39 H191       -1.7690    0.9270   -0.0670 H         1 HET    0.0535
     40 H192       -0.4940    1.8130   -0.9770 H         1 HET    0.0535
     41 H193       -0.5450    1.8960    0.8270 H         1 HET    0.0535
     42 H201        6.2620    2.0140   -0.3040 H         1 HET    0.0536
     43 H202        6.1260    0.9780   -1.7700 H         1 HET    0.0536
     44 H203        7.4010    0.6420   -0.5400 H         1 HET    0.0536
     45 H211        2.8890    3.8470    0.9210 H         1 HET    0.0536
     46 H212        2.8830    3.8490   -0.8820 H         1 HET    0.0536
     47 H213        4.3000    4.4990    0.0180 H         1 HET    0.0536
     48 H221        3.9630   -8.3540    1.5390 H         1 HET    0.0536
     49 H222        3.9310   -8.5750   -0.2500 H         1 HET    0.0536
     50 H223        3.6170   -9.9720    0.8350 H         1 HET    0.0536
     51 H231        0.2360   -9.7700    1.9830 H         1 HET    0.0536
     52 H232        0.3810  -10.1870    0.2400 H         1 HET    0.0536
     53 H233       -1.1960  -10.3980    1.0850 H         1 HET    0.0536
@<TRIPOS>BOND
     1    1   15 1
     2    1   25 1
     3    2   17 1
     4    2   26 1
     5    3   21 1
     6    3   27 1
     7    4   23 1
     8    4   28 1
     9    5   24 1
    10    5   29 1
    11    6    7 ar
    12    6   13 ar
    13    6   19 1
    14    7    8 ar
    15    7   10 ar
    16    8    9 ar
    17    8   14 ar
    18    9   11 ar
    19    9   15 ar
    20   10   12 ar
    21   10   18 ar
    22   11   13 ar
    23   11   17 ar
    24   12   16 ar
    25   12   20 ar
    26   13   30 1
    27   14   16 ar
    28   14   31 1
    29   15   22 ar
    30   16   32 1
    31   17   21 ar
    32   18   23 ar
    33   18   33 1
    34   19   34 1
    35   19   35 1
    36   19   36 1
    37   20   24 ar
    38   20   37 1
    39   21   22 ar
    40   22   38 1
    41   23   24 ar
    42   25   39 1
    43   25   40 1
    44   25   41 1
    45   26   42 1
    46   26   43 1
    47   26   44 1
    48   27   45 1
    49   27   46 1
    50   27   47 1
    51   28   48 1
    52   28   49 1
    53   28   50 1
    54   29   51 1
    55   29   52 1
    56   29   53 1
@<TRIPOS>SUBSTRUCTURE
     1 HET     1 RESIDUE           4 A     HET     0 ROOT
