356660
  -OEChem-08292522323D

 53 56  0     0  0  0  0  0  0999 V2000
    2.5437    2.9107   -0.5233 O   0  0  0  0  0  0  0  0  0  0  0  0
    4.0474   -2.3172    0.2690 O   0  0  0  0  0  0  0  0  0  0  0  0
    5.9002   -0.3277   -0.0604 O   0  0  0  0  0  0  0  0  0  0  0  0
   -5.1396   -1.8679    0.3028 O   0  0  0  0  0  0  0  0  0  0  0  0
   -6.0737    0.7137   -0.0843 O   0  0  0  0  0  0  0  0  0  0  0  0
   -0.0029   -1.4658    0.1812 N   0  3  0  0  0  0  0  0  0  0  0  0
   -0.5238   -0.2348   -0.0032 C   0  0  0  0  0  0  0  0  0  0  0  0
    0.3841    0.8473   -0.1805 C   0  0  0  0  0  0  0  0  0  0  0  0
    1.7975    0.5945   -0.1572 C   0  0  0  0  0  0  0  0  0  0  0  0
   -1.9421   -0.0427   -0.0164 C   0  0  0  0  0  0  0  0  0  0  0  0
    2.2450   -0.7279    0.0424 C   0  0  0  0  0  0  0  0  0  0  0  0
   -2.4465    1.2642   -0.2120 C   0  0  0  0  0  0  0  0  0  0  0  0
    1.3053   -1.7319    0.2079 C   0  0  0  0  0  0  0  0  0  0  0  0
   -0.1791    2.1245   -0.3714 C   0  0  0  0  0  0  0  0  0  0  0  0
    2.7996    1.5849   -0.3213 C   0  0  0  0  0  0  0  0  0  0  0  0
   -1.5596    2.3280   -0.3866 C   0  0  0  0  0  0  0  0  0  0  0  0
    3.6159   -1.0339    0.0749 C   0  0  0  0  0  0  0  0  0  0  0  0
   -2.8917   -1.0805    0.1547 C   0  0  0  0  0  0  0  0  0  0  0  0
   -0.7321   -2.7172    0.3821 C   0  0  0  0  0  0  0  0  0  0  0  0
   -3.8323    1.4986   -0.2317 C   0  0  0  0  0  0  0  0  0  0  0  0
    4.5707   -0.0357   -0.0899 C   0  0  0  0  0  0  0  0  0  0  0  0
    4.1624    1.2750   -0.2881 C   0  0  0  0  0  0  0  0  0  0  0  0
   -4.2669   -0.8346    0.1332 C   0  0  0  0  0  0  0  0  0  0  0  0
   -4.7374    0.4555   -0.0600 C   0  0  0  0  0  0  0  0  0  0  0  0
    2.4368    3.7312    0.6367 C   0  0  0  0  0  0  0  0  0  0  0  0
    4.2365   -3.1146   -0.8953 C   0  0  0  0  0  0  0  0  0  0  0  0
    6.5484   -0.2737    1.2094 C   0  0  0  0  0  0  0  0  0  0  0  0
   -5.5691   -2.5520   -0.8722 C   0  0  0  0  0  0  0  0  0  0  0  0
   -6.6965    1.0299    1.1597 C   0  0  0  0  0  0  0  0  0  0  0  0
    1.6249   -2.7557    0.3732 H   0  0  0  0  0  0  0  0  0  0  0  0
    0.3881    3.0171   -0.5784 H   0  0  0  0  0  0  0  0  0  0  0  0
   -1.9326    3.3377   -0.5512 H   0  0  0  0  0  0  0  0  0  0  0  0
   -2.7363   -2.1234    0.3191 H   0  0  0  0  0  0  0  0  0  0  0  0
   -1.2876   -2.9500   -0.5310 H   0  0  0  0  0  0  0  0  0  0  0  0
   -0.0738   -3.5864    0.5043 H   0  0  0  0  0  0  0  0  0  0  0  0
   -1.2616   -2.6652    1.3378 H   0  0  0  0  0  0  0  0  0  0  0  0
   -4.2139    2.5073   -0.3837 H   0  0  0  0  0  0  0  0  0  0  0  0
    4.9058    2.0581   -0.4201 H   0  0  0  0  0  0  0  0  0  0  0  0
    1.9571    4.6725    0.3538 H   0  0  0  0  0  0  0  0  0  0  0  0
    3.4368    3.9565    1.0207 H   0  0  0  0  0  0  0  0  0  0  0  0
    1.8450    3.2533    1.4244 H   0  0  0  0  0  0  0  0  0  0  0  0
    5.0682   -2.7267   -1.4918 H   0  0  0  0  0  0  0  0  0  0  0  0
    3.3280   -3.1508   -1.5047 H   0  0  0  0  0  0  0  0  0  0  0  0
    4.4824   -4.1315   -0.5773 H   0  0  0  0  0  0  0  0  0  0  0  0
    6.0957   -0.9880    1.9043 H   0  0  0  0  0  0  0  0  0  0  0  0
    6.4960    0.7383    1.6233 H   0  0  0  0  0  0  0  0  0  0  0  0
    7.5994   -0.5404    1.0690 H   0  0  0  0  0  0  0  0  0  0  0  0
   -4.7160   -3.0093   -1.3835 H   0  0  0  0  0  0  0  0  0  0  0  0
   -6.0898   -1.8671   -1.5488 H   0  0  0  0  0  0  0  0  0  0  0  0
   -6.2626   -3.3429   -0.5738 H   0  0  0  0  0  0  0  0  0  0  0  0
   -6.2618    1.9399    1.5854 H   0  0  0  0  0  0  0  0  0  0  0  0
   -6.5938    0.1988    1.8643 H   0  0  0  0  0  0  0  0  0  0  0  0
   -7.7603    1.2032    0.9757 H   0  0  0  0  0  0  0  0  0  0  0  0
  1 15  1  0  0  0  0
  1 25  1  0  0  0  0
  2 17  1  0  0  0  0
  2 26  1  0  0  0  0
  3 21  1  0  0  0  0
  3 27  1  0  0  0  0
  4 23  1  0  0  0  0
  4 28  1  0  0  0  0
  5 24  1  0  0  0  0
  5 29  1  0  0  0  0
  6  7  2  0  0  0  0
  6 13  1  0  0  0  0
  6 19  1  0  0  0  0
  7  8  1  0  0  0  0
  7 10  1  0  0  0  0
  8  9  2  0  0  0  0
  8 14  1  0  0  0  0
  9 11  1  0  0  0  0
  9 15  1  0  0  0  0
 10 12  1  0  0  0  0
 10 18  2  0  0  0  0
 11 13  2  0  0  0  0
 11 17  1  0  0  0  0
 12 16  1  0  0  0  0
 12 20  2  0  0  0  0
 13 30  1  0  0  0  0
 14 16  2  0  0  0  0
 14 31  1  0  0  0  0
 15 22  2  0  0  0  0
 16 32  1  0  0  0  0
 17 21  2  0  0  0  0
 18 23  1  0  0  0  0
 18 33  1  0  0  0  0
 19 34  1  0  0  0  0
 19 35  1  0  0  0  0
 19 36  1  0  0  0  0
 20 24  1  0  0  0  0
 20 37  1  0  0  0  0
 21 22  1  0  0  0  0
 22 38  1  0  0  0  0
 23 24  2  0  0  0  0
 25 39  1  0  0  0  0
 25 40  1  0  0  0  0
 25 41  1  0  0  0  0
 26 42  1  0  0  0  0
 26 43  1  0  0  0  0
 26 44  1  0  0  0  0
 27 45  1  0  0  0  0
 27 46  1  0  0  0  0
 27 47  1  0  0  0  0
 28 48  1  0  0  0  0
 28 49  1  0  0  0  0
 28 50  1  0  0  0  0
 29 51  1  0  0  0  0
 29 52  1  0  0  0  0
 29 53  1  0  0  0  0
M  CHG  1   6   1
M  END
> <PUBCHEM_COMPOUND_CID>
356660

> <PUBCHEM_CONFORMER_RMSD>
0.8

> <PUBCHEM_CONFORMER_DIVERSEORDER>
2
1

> <PUBCHEM_MMFF94_PARTIAL_CHARGES>
30
1 -0.36
13 0.21
14 -0.15
15 0.08
16 -0.15
17 0.08
18 -0.15
19 0.49
2 -0.36
20 -0.15
21 0.08
22 -0.15
23 0.08
24 0.08
25 0.28
26 0.28
27 0.28
28 0.28
29 0.28
3 -0.36
30 0.15
31 0.15
32 0.15
33 0.15
37 0.15
38 0.15
4 -0.36
5 -0.36
6 -0.21
7 0.36

> <PUBCHEM_EFFECTIVE_ROTOR_COUNT>
5

> <PUBCHEM_PHARMACOPHORE_FEATURES>
9
1 1 acceptor
1 2 acceptor
1 3 acceptor
1 4 acceptor
1 5 acceptor
6 10 12 18 20 23 24 rings
6 6 7 8 9 11 13 rings
6 7 8 10 12 14 16 rings
6 9 11 15 17 21 22 rings

> <PUBCHEM_HEAVY_ATOM_COUNT>
29

> <PUBCHEM_ATOM_DEF_STEREO_COUNT>
0

> <PUBCHEM_ATOM_UDEF_STEREO_COUNT>
0

> <PUBCHEM_BOND_DEF_STEREO_COUNT>
0

> <PUBCHEM_BOND_UDEF_STEREO_COUNT>
0

> <PUBCHEM_ISOTOPIC_ATOM_COUNT>
0

> <PUBCHEM_COMPONENT_COUNT>
1

> <PUBCHEM_CACTVS_TAUTO_COUNT>
1

> <PUBCHEM_CONFORMER_ID>
0005713400000002

> <PUBCHEM_MMFF94_ENERGY>
187.2887

> <PUBCHEM_FEATURE_SELFOVERLAP>
45.759

> <PUBCHEM_SHAPE_FINGERPRINT>
10411042 1 18122064200657250310
1100329 8 18337106864825907722
11578080 2 17201622575485819506
11607047 403 16190550324414483643
11963148 33 18409441501688699638
12107183 9 18053393097910954993
12236239 1 18060138747712483509
12403259 226 18335979779381926148
12403260 363 18408885165541016364
12838862 33 18264188288516620765
13140716 1 18192708076086315562
13402501 40 18407760317737221684
13862211 1 18335979860764621995
14341114 176 18339647728675796391
14790565 3 18410017663034388925
14849402 71 18337394967048861224
15131766 46 15121783025951879408
15196674 1 18409167749003963045
15927050 60 17836927073042644236
17492 89 18339642243998109902
18681886 176 18342733053067079210
19591789 44 18408884053249617999
20028762 73 18343016735262036390
21130935 74 18343863316687652946
21236236 1 18411138065509894603
21267235 1 18335992981863006239
21279426 13 18192148183574856181
22393880 68 18113886157623079887
23402539 116 18411414033847733263
23522609 53 18118715229250805461
23559900 14 18411695491349019641
24771293 8 18341886429272252512
3004659 81 18186525385033409540
3178227 256 18334023769723482617
335352 9 18408604773064518964
350125 39 18408887338699626580
3680242 22 18189617142051201899
392239 28 18410017645622379145
4073 2 18041848418944914811
4093350 32 17417817175500865990
5104073 3 18268144250038929896
59755656 215 18334859372495343711
67856867 119 18340484572883545729
9709674 26 18335989730673444699

> <PUBCHEM_SHAPE_MULTIPOLES>
562.48
14.32
3.48
0.82
6.3
0.34
-0.07
-3.27
-2.1
-1.4
0.28
-0.04
-0.03
-0.22

> <PUBCHEM_SHAPE_SELFOVERLAP>
1248.082

> <PUBCHEM_SHAPE_VOLUME>
304.4

> <PUBCHEM_COORDINATE_TYPE>
2
5
10

$$$$
