854026
  -OEChem-08242522273D

 36 38  0     1  0  0  0  0  0999 V2000
    4.5638   -0.3135   -0.7123 O   0  0  0  0  0  0  0  0  0  0  0  0
   -0.8302   -0.4505    2.5194 N   0  0  0  0  0  0  0  0  0  0  0  0
    2.3027   -0.5586   -1.1066 N   0  0  0  0  0  0  0  0  0  0  0  0
   -0.7415   -0.0039    1.1149 C   0  0  1  0  0  0  0  0  0  0  0  0
   -1.4796   -0.4040   -1.2513 C   0  0  2  0  0  0  0  0  0  0  0  0
   -1.6637   -0.8159    0.1961 C   0  0  0  0  0  0  0  0  0  0  0  0
   -1.2433    1.4735    1.0364 C   0  0  0  0  0  0  0  0  0  0  0  0
    0.7097   -0.0801    0.5873 C   0  0  0  0  0  0  0  0  0  0  0  0
   -0.0672   -0.8408   -1.6869 C   0  0  0  0  0  0  0  0  0  0  0  0
    0.9960   -0.4829   -0.6719 C   0  0  0  0  0  0  0  0  0  0  0  0
   -1.5545    1.9539   -0.3724 C   0  0  0  0  0  0  0  0  0  0  0  0
   -1.6476    1.0945   -1.4054 C   0  0  0  0  0  0  0  0  0  0  0  0
   -2.5275   -1.7814    0.5487 C   0  0  0  0  0  0  0  0  0  0  0  0
    1.8160    0.3077    1.4504 C   0  0  0  0  0  0  0  0  0  0  0  0
   -1.7483    3.4305   -0.5431 C   0  0  0  0  0  0  0  0  0  0  0  0
    3.0902    0.2386    1.0454 C   0  0  0  0  0  0  0  0  0  0  0  0
    3.3996   -0.2360   -0.3289 C   0  0  0  0  0  0  0  0  0  0  0  0
   -3.3745   -2.5310   -0.4198 C   0  0  0  0  0  0  0  0  0  0  0  0
   -2.2126   -0.8661   -1.9200 H   0  0  0  0  0  0  0  0  0  0  0  0
   -0.4999    2.1439    1.4886 H   0  0  0  0  0  0  0  0  0  0  0  0
   -2.1641    1.5870    1.6269 H   0  0  0  0  0  0  0  0  0  0  0  0
    0.1752   -0.3853   -2.6562 H   0  0  0  0  0  0  0  0  0  0  0  0
   -0.0506   -1.9291   -1.8337 H   0  0  0  0  0  0  0  0  0  0  0  0
   -1.8444    1.4670   -2.4074 H   0  0  0  0  0  0  0  0  0  0  0  0
   -0.4354    0.2489    3.1452 H   0  0  0  0  0  0  0  0  0  0  0  0
   -0.2985   -1.3096    2.6510 H   0  0  0  0  0  0  0  0  0  0  0  0
   -2.6479   -2.0530    1.5932 H   0  0  0  0  0  0  0  0  0  0  0  0
    1.6053    0.6791    2.4471 H   0  0  0  0  0  0  0  0  0  0  0  0
    2.4647   -0.8730   -2.0593 H   0  0  0  0  0  0  0  0  0  0  0  0
   -0.8386    3.9684   -0.2574 H   0  0  0  0  0  0  0  0  0  0  0  0
   -2.5721    3.7797    0.0876 H   0  0  0  0  0  0  0  0  0  0  0  0
   -1.9837    3.6986   -1.5784 H   0  0  0  0  0  0  0  0  0  0  0  0
    3.9120    0.5308    1.6879 H   0  0  0  0  0  0  0  0  0  0  0  0
   -3.8197   -3.3975    0.0815 H   0  0  0  0  0  0  0  0  0  0  0  0
   -2.7939   -2.9213   -1.2611 H   0  0  0  0  0  0  0  0  0  0  0  0
   -4.1949   -1.9073   -0.7876 H   0  0  0  0  0  0  0  0  0  0  0  0
  1 17  2  0  0  0  0
  2  4  1  0  0  0  0
  2 25  1  0  0  0  0
  2 26  1  0  0  0  0
  3 10  1  0  0  0  0
  3 17  1  0  0  0  0
  3 29  1  0  0  0  0
  4  6  1  0  0  0  0
  4  7  1  0  0  0  0
  4  8  1  0  0  0  0
  5  6  1  0  0  0  0
  5  9  1  0  0  0  0
  5 12  1  0  0  0  0
  5 19  1  0  0  0  0
  6 13  2  0  0  0  0
  7 11  1  0  0  0  0
  7 20  1  0  0  0  0
  7 21  1  0  0  0  0
  8 10  2  0  0  0  0
  8 14  1  0  0  0  0
  9 10  1  0  0  0  0
  9 22  1  0  0  0  0
  9 23  1  0  0  0  0
 11 12  2  0  0  0  0
 11 15  1  0  0  0  0
 12 24  1  0  0  0  0
 13 18  1  0  0  0  0
 13 27  1  0  0  0  0
 14 16  2  0  0  0  0
 14 28  1  0  0  0  0
 15 30  1  0  0  0  0
 15 31  1  0  0  0  0
 15 32  1  0  0  0  0
 16 17  1  0  0  0  0
 16 33  1  0  0  0  0
 18 34  1  0  0  0  0
 18 35  1  0  0  0  0
 18 36  1  0  0  0  0
M  END
> <PUBCHEM_COMPOUND_CID>
854026

> <PUBCHEM_CONFORMER_RMSD>
0.6

> <PUBCHEM_CONFORMER_DIVERSEORDER>
1

> <PUBCHEM_MMFF94_PARTIAL_CHARGES>
25
1 -0.57
10 -0.03
11 -0.28
12 -0.29
13 -0.29
14 -0.15
15 0.14
16 -0.14
17 0.62
18 0.14
2 -0.99
24 0.15
25 0.36
26 0.36
27 0.15
28 0.15
29 0.37
3 -0.54
33 0.15
4 0.55
5 0.28
6 -0.28
7 0.14
8 -0.14
9 0.14

> <PUBCHEM_EFFECTIVE_ROTOR_COUNT>
0.4

> <PUBCHEM_PHARMACOPHORE_FEATURES>
8
1 1 acceptor
1 18 hydrophobe
1 2 cation
1 2 donor
1 3 donor
6 3 8 10 14 16 17 rings
6 4 5 6 7 11 12 rings
6 4 5 6 8 9 10 rings

> <PUBCHEM_HEAVY_ATOM_COUNT>
18

> <PUBCHEM_ATOM_DEF_STEREO_COUNT>
2

> <PUBCHEM_ATOM_UDEF_STEREO_COUNT>
0

> <PUBCHEM_BOND_DEF_STEREO_COUNT>
1

> <PUBCHEM_BOND_UDEF_STEREO_COUNT>
0

> <PUBCHEM_ISOTOPIC_ATOM_COUNT>
0

> <PUBCHEM_COMPONENT_COUNT>
1

> <PUBCHEM_CACTVS_TAUTO_COUNT>
2

> <PUBCHEM_CONFORMER_ID>
000D080A00000001

> <PUBCHEM_MMFF94_ENERGY>
37.9847

> <PUBCHEM_FEATURE_SELFOVERLAP>
41.945

> <PUBCHEM_SHAPE_FINGERPRINT>
10863032 1 18267856186218305191
10948715 1 17902232208869122861
11640471 11 17315900092616253437
12138202 97 18267866077491116557
12403814 3 18059003016356442444
12423570 1 13387406391890765183
12491281 212 18041839485391761616
13024252 1 17095531690300247393
13299463 15 16987695953334601860
13583140 156 18056448765542093594
14181834 199 17412462812009081695
14617773 55 17313650590672972267
14817 1 14354480276459298873
15309172 13 15719675334149393304
15906896 17 17896330125225124249
16945 1 18335688413148059197
17357779 13 17987495161395626119
17844478 74 18060136586964294382
1813 80 18195529414053984503
18534176 82 18341886355724727101
19765921 60 17624683566959762465
19837323 101 18266443326920114093
200 152 17386000723692449646
20600515 1 18126863804776790143
21330990 113 18272100374648902891
21524375 3 17693642737077598069
22112679 90 18118714177420706021
2306618 200 17917992741832920906
23402539 116 17894632577655308335
23419403 2 17915161624267527633
23493267 7 18269551646296949290
23557571 272 18264474251786838528
25 1 17413589445875816505
2748010 2 17560786728632530264
427121 178 17249237716653526457
430814 3 17755295669735266501
45790113 50 16558201521784464618
5845 1 13336455263678163889
5895379 119 12982243315008740423
6049 1 18059568109831068488
6442390 28 17981058414263822545
6786 2 17691710895263562001
81228 2 18408611353117914073
84936 31 17407388612912460441

> <PUBCHEM_SHAPE_MULTIPOLES>
354.6
5.14
2.4
1.75
5.4
1.73
0.47
-1.95
-0.74
-3.32
-0.44
0.02
-0.11
0.54

> <PUBCHEM_SHAPE_SELFOVERLAP>
768.966

> <PUBCHEM_SHAPE_VOLUME>
192.9

> <PUBCHEM_COORDINATE_TYPE>
2
5
10

$$$$
