@<TRIPOS>MOLECULE
estricninaPM7.pdb
48 54 1 0 0
SMALL
AMBER ff14SB


@<TRIPOS>ATOM
      1 O1          0.3540    0.0830    0.1590 O.3       1 HET   -0.3733
      2 O2          4.9260    0.0830    0.1590 O.2       1 HET   -0.2770
      3 N1          0.1000    4.9750    0.1590 N.4       1 HET    0.2526
      4 N2          3.5250    1.8180   -0.2430 N.am      1 HET   -0.2666
      5 C1          2.3080    3.9100   -0.0670 C.3       1 HET    0.0631
      6 C2          2.1540    2.3480   -0.0160 C.3       1 HET    0.0516
      7 C3          1.4220    4.6940    0.9240 C.3       1 HET   -0.0105
      8 C4          1.6750    1.7700    1.3290 C.3       1 HET    0.0127
      9 C5          0.5190    2.5900    1.9060 C.3       1 HET   -0.0027
     10 C6          1.1210    3.9730    2.2280 C.3       1 HET   -0.0026
     11 C7          1.8520    4.4390   -1.4460 C.3       1 HET    0.0033
     12 C8          3.7840    4.1080    0.0930 C.ar      1 HET   -0.0125
     13 C9          0.3480    4.6450   -1.3120 C.3       1 HET   -0.0327
     14 C10         1.4010    0.2730    1.0950 C.3       1 HET    0.0717
     15 C11        -0.6500    2.7470    0.9770 C.2       1 HET   -0.0245
     16 C12        -1.0630    4.1650    0.7060 C.3       1 HET   -0.0119
     17 C13         4.4550    2.8700   -0.0560 C.ar      1 HET    0.0398
     18 C14         2.5920   -0.4020    0.3860 C.3       1 HET    0.0516
     19 C15         3.7880    0.4790    0.1210 C.2       1 HET    0.2215
     20 C16        -1.3370    1.7300    0.4470 C.2       1 HET   -0.0543
     21 C17         4.5060    5.2730    0.2800 C.ar      1 HET   -0.0563
     22 C18        -0.9560    0.2950    0.6410 C.3       1 HET    0.0656
     23 C19         5.8430    2.7910   -0.0350 C.ar      1 HET   -0.0402
     24 C20         5.9010    5.1970    0.3230 C.ar      1 HET   -0.0618
     25 C21         6.5540    3.9750    0.1600 C.ar      1 HET   -0.0604
     26 H2          1.4880    1.9900   -0.8420 H         1 HET    0.0527
     27 H3          1.8950    5.6920    1.1290 H         1 HET    0.0862
     28 H4          2.5190    1.8290    2.0740 H         1 HET    0.0356
     29 H5          0.1600    2.1050    2.8530 H         1 HET    0.0358
     30 H61         0.4600    4.5610    2.8920 H         1 HET    0.0331
     31 H62         2.0620    3.8620    2.8160 H         1 HET    0.0331
     32 H71         2.1150    3.7310   -2.2600 H         1 HET    0.0333
     33 H72         2.3890    5.3720   -1.7090 H         1 HET    0.0333
     34 H91        -0.0360    5.4660   -1.9530 H         1 HET    0.0815
     35 H92        -0.2030    3.7170   -1.5930 H         1 HET    0.0815
     36 H10         1.1490   -0.2400    2.0490 H         1 HET    0.0613
     37 H121       -1.9120    4.2280   -0.0150 H         1 HET    0.0865
     38 H122       -1.4260    4.6430    1.6510 H         1 HET    0.0865
     39 H141        2.2430   -0.8250   -0.5930 H         1 HET    0.0392
     40 H142        2.9290   -1.2940    0.9630 H         1 HET    0.0392
     41 H16        -2.2130    1.8870   -0.1850 H         1 HET    0.0602
     42 H17         4.0100    6.2330    0.3870 H         1 HET    0.0627
     43 H181       -1.0750   -0.0300    1.6930 H         1 HET    0.0612
     44 H182       -1.5480   -0.3910   -0.0060 H         1 HET    0.0612
     45 H19         6.3560    1.8330   -0.1640 H         1 HET    0.0643
     46 H20         6.4830    6.1050    0.4800 H         1 HET    0.0623
     47 H21         7.6480    3.9410    0.1840 H         1 HET    0.0623
     48 H1         -0.1270    5.9920    0.2530 H         1 HET    0.2008
@<TRIPOS>BOND
     1    1   14 1
     2    1   22 1
     3    2   19 2
     4    3    7 1
     5    3   13 1
     6    3   16 1
     7    3   48 1
     8    4    6 1
     9    4   17 1
    10    4   19 am
    11    5    6 1
    12    5    7 1
    13    5   11 1
    14    5   12 1
    15    6    8 1
    16    6   26 1
    17    7   10 1
    18    7   27 1
    19    8    9 1
    20    8   14 1
    21    8   28 1
    22    9   10 1
    23    9   15 1
    24    9   29 1
    25   10   30 1
    26   10   31 1
    27   11   13 1
    28   11   32 1
    29   11   33 1
    30   12   17 ar
    31   12   21 ar
    32   13   34 1
    33   13   35 1
    34   14   18 1
    35   14   36 1
    36   15   16 1
    37   15   20 2
    38   16   37 1
    39   16   38 1
    40   17   23 ar
    41   18   19 1
    42   18   39 1
    43   18   40 1
    44   20   22 1
    45   20   41 1
    46   21   24 ar
    47   21   42 1
    48   22   43 1
    49   22   44 1
    50   23   25 ar
    51   23   45 1
    52   24   25 ar
    53   24   46 1
    54   25   47 1
@<TRIPOS>SUBSTRUCTURE
     1 HET     1 RESIDUE           4 A     HET     0 ROOT
