3034748
  -OEChem-08242522243D

 27 28  0     1  0  0  0  0  0999 V2000
   -2.8358   -0.2812   -1.1965 O   0  0  0  0  0  0  0  0  0  0  0  0
    1.0495    0.6536   -1.3311 N   0  0  0  0  0  0  0  0  0  0  0  0
    2.2027    0.1314   -0.5845 C   0  0  1  0  0  0  0  0  0  0  0  0
    0.0494    1.0115   -0.3128 C   0  0  2  0  0  0  0  0  0  0  0  0
    2.2887    1.0303    0.6418 C   0  0  0  0  0  0  0  0  0  0  0  0
    0.8666    1.5287    0.8752 C   0  0  0  0  0  0  0  0  0  0  0  0
    2.0382   -1.3637   -0.2715 C   0  0  0  0  0  0  0  0  0  0  0  0
   -0.8377   -0.1564    0.0283 C   0  0  0  0  0  0  0  0  0  0  0  0
    0.9775   -1.7672    0.7597 C   0  0  0  0  0  0  0  0  0  0  0  0
   -0.4397   -1.3524    0.4907 C   0  0  0  0  0  0  0  0  0  0  0  0
   -2.2888    0.0148   -0.1346 C   0  0  0  0  0  0  0  0  0  0  0  0
   -3.0704    0.5505    1.0352 C   0  0  0  0  0  0  0  0  0  0  0  0
    3.1031    0.2484   -1.1983 H   0  0  0  0  0  0  0  0  0  0  0  0
   -0.5696    1.8258   -0.7079 H   0  0  0  0  0  0  0  0  0  0  0  0
    2.9368    1.8903    0.4311 H   0  0  0  0  0  0  0  0  0  0  0  0
    2.6978    0.5230    1.5212 H   0  0  0  0  0  0  0  0  0  0  0  0
    0.4804    1.1884    1.8426 H   0  0  0  0  0  0  0  0  0  0  0  0
    0.8662    2.6254    0.8932 H   0  0  0  0  0  0  0  0  0  0  0  0
    0.6859   -0.0265   -1.9961 H   0  0  0  0  0  0  0  0  0  0  0  0
    3.0047   -1.7375    0.0928 H   0  0  0  0  0  0  0  0  0  0  0  0
    1.8475   -1.9064   -1.2076 H   0  0  0  0  0  0  0  0  0  0  0  0
    1.2623   -1.4198    1.7599 H   0  0  0  0  0  0  0  0  0  0  0  0
    0.9907   -2.8637    0.8185 H   0  0  0  0  0  0  0  0  0  0  0  0
   -1.1915   -2.1035    0.7292 H   0  0  0  0  0  0  0  0  0  0  0  0
   -2.4079    0.8040    1.8676 H   0  0  0  0  0  0  0  0  0  0  0  0
   -3.7814   -0.2085    1.3714 H   0  0  0  0  0  0  0  0  0  0  0  0
   -3.6011    1.4556    0.7282 H   0  0  0  0  0  0  0  0  0  0  0  0
  1 11  2  0  0  0  0
  2  3  1  0  0  0  0
  2  4  1  0  0  0  0
  2 19  1  0  0  0  0
  3  5  1  0  0  0  0
  3  7  1  0  0  0  0
  3 13  1  0  0  0  0
  4  6  1  0  0  0  0
  4  8  1  0  0  0  0
  4 14  1  0  0  0  0
  5  6  1  0  0  0  0
  5 15  1  0  0  0  0
  5 16  1  0  0  0  0
  6 17  1  0  0  0  0
  6 18  1  0  0  0  0
  7  9  1  0  0  0  0
  7 20  1  0  0  0  0
  7 21  1  0  0  0  0
  8 10  2  0  0  0  0
  8 11  1  0  0  0  0
  9 10  1  0  0  0  0
  9 22  1  0  0  0  0
  9 23  1  0  0  0  0
 10 24  1  0  0  0  0
 11 12  1  0  0  0  0
 12 25  1  0  0  0  0
 12 26  1  0  0  0  0
 12 27  1  0  0  0  0
M  END
> <PUBCHEM_COMPOUND_CID>
3034748

> <PUBCHEM_CONFORMER_RMSD>
0.6

> <PUBCHEM_CONFORMER_DIVERSEORDER>
1
4
2
3

> <PUBCHEM_MMFF94_PARTIAL_CHARGES>
11
1 -0.57
10 -0.29
11 0.49
12 0.06
19 0.36
2 -0.9
24 0.15
3 0.27
4 0.41
8 -0.12
9 0.14

> <PUBCHEM_EFFECTIVE_ROTOR_COUNT>
2

> <PUBCHEM_PHARMACOPHORE_FEATURES>
5
1 1 acceptor
1 2 cation
1 2 donor
5 2 3 4 5 6 rings
7 2 3 4 7 8 9 10 rings

> <PUBCHEM_HEAVY_ATOM_COUNT>
12

> <PUBCHEM_ATOM_DEF_STEREO_COUNT>
2

> <PUBCHEM_ATOM_UDEF_STEREO_COUNT>
0

> <PUBCHEM_BOND_DEF_STEREO_COUNT>
0

> <PUBCHEM_BOND_UDEF_STEREO_COUNT>
0

> <PUBCHEM_ISOTOPIC_ATOM_COUNT>
0

> <PUBCHEM_COMPONENT_COUNT>
1

> <PUBCHEM_CACTVS_TAUTO_COUNT>
5

> <PUBCHEM_CONFORMER_ID>
002E4E7C00000001

> <PUBCHEM_MMFF94_ENERGY>
22.6571

> <PUBCHEM_FEATURE_SELFOVERLAP>
26.804

> <PUBCHEM_SHAPE_FINGERPRINT>
10219947 1 17968086551703053004
12423570 1 8430314580944816356
12491281 212 17202785759518403225
12932764 1 18272092682172571725
15775835 57 18342746204114566489
16945 1 18334013878355549710
17844478 74 17604165743798168513
20653091 64 18131626811485190577
21040471 1 18189620621169941818
23235685 24 18186808014565116324
23419403 2 15874413939106321290
241688 4 17610061170416620154
2748010 2 18191877940132763886
5084963 1 18115028622865484911
528886 8 17967828157795961220
53812653 166 18411142475881709928
63268167 104 18411980234954033113

> <PUBCHEM_SHAPE_MULTIPOLES>
236.1
3.92
1.64
1.12
2.57
0.32
-0.11
-0.28
-0.05
-0.82
0.42
0.16
-0.11
-0.1

> <PUBCHEM_SHAPE_SELFOVERLAP>
488.44

> <PUBCHEM_SHAPE_VOLUME>
135.3

> <PUBCHEM_COORDINATE_TYPE>
2
5
10

$$$$
