114943
  -OEChem-08292522323D

 32 35  0     0  0  0  0  0  0999 V2000
    0.0553    1.2032   -0.2022 N   0  3  0  0  0  0  0  0  0  0  0  0
   -0.9549    2.2755   -0.3906 C   0  0  0  0  0  0  0  0  0  0  0  0
   -2.1458    2.0247    0.5147 C   0  0  0  0  0  0  0  0  0  0  0  0
   -0.3170   -0.1035   -0.0735 C   0  0  0  0  0  0  0  0  0  0  0  0
   -2.6796    0.6481    0.2398 C   0  0  0  0  0  0  0  0  0  0  0  0
   -1.7658   -0.3833   -0.0589 C   0  0  0  0  0  0  0  0  0  0  0  0
    1.3608    1.5592   -0.2172 C   0  0  0  0  0  0  0  0  0  0  0  0
    0.6808   -1.0827    0.0705 C   0  0  0  0  0  0  0  0  0  0  0  0
    2.3815    0.6196   -0.0830 C   0  0  0  0  0  0  0  0  0  0  0  0
    2.0348   -0.7319    0.0661 C   0  0  0  0  0  0  0  0  0  0  0  0
   -4.0570    0.3965    0.3117 C   0  0  0  0  0  0  0  0  0  0  0  0
   -2.2934   -1.6601   -0.3225 C   0  0  0  0  0  0  0  0  0  0  0  0
    3.7359    0.9915   -0.0934 C   0  0  0  0  0  0  0  0  0  0  0  0
    3.0521   -1.6912    0.2072 C   0  0  0  0  0  0  0  0  0  0  0  0
   -4.5495   -0.8790    0.0556 C   0  0  0  0  0  0  0  0  0  0  0  0
   -3.6689   -1.9050   -0.2671 C   0  0  0  0  0  0  0  0  0  0  0  0
    4.7362    0.0295    0.0460 C   0  0  0  0  0  0  0  0  0  0  0  0
    4.3945   -1.3111    0.1969 C   0  0  0  0  0  0  0  0  0  0  0  0
   -1.2235    2.2579   -1.4539 H   0  0  0  0  0  0  0  0  0  0  0  0
   -0.5031    3.2440   -0.1528 H   0  0  0  0  0  0  0  0  0  0  0  0
   -2.9103    2.7864    0.3253 H   0  0  0  0  0  0  0  0  0  0  0  0
   -1.8537    2.0887    1.5695 H   0  0  0  0  0  0  0  0  0  0  0  0
    1.5682    2.6167   -0.3443 H   0  0  0  0  0  0  0  0  0  0  0  0
    0.4094   -2.1278    0.2020 H   0  0  0  0  0  0  0  0  0  0  0  0
   -4.7504    1.1955    0.5605 H   0  0  0  0  0  0  0  0  0  0  0  0
   -1.6453   -2.4933   -0.5830 H   0  0  0  0  0  0  0  0  0  0  0  0
    4.0223    2.0347   -0.2091 H   0  0  0  0  0  0  0  0  0  0  0  0
    2.8061   -2.7444    0.3253 H   0  0  0  0  0  0  0  0  0  0  0  0
   -5.6170   -1.0713    0.1043 H   0  0  0  0  0  0  0  0  0  0  0  0
   -4.0491   -2.9013   -0.4741 H   0  0  0  0  0  0  0  0  0  0  0  0
    5.7806    0.3270    0.0375 H   0  0  0  0  0  0  0  0  0  0  0  0
    5.1720   -2.0615    0.3061 H   0  0  0  0  0  0  0  0  0  0  0  0
  1  2  1  0  0  0  0
  1  4  1  0  0  0  0
  1  7  2  0  0  0  0
  2  3  1  0  0  0  0
  2 19  1  0  0  0  0
  2 20  1  0  0  0  0
  3  5  1  0  0  0  0
  3 21  1  0  0  0  0
  3 22  1  0  0  0  0
  4  6  1  0  0  0  0
  4  8  2  0  0  0  0
  5  6  1  0  0  0  0
  5 11  2  0  0  0  0
  6 12  2  0  0  0  0
  7  9  1  0  0  0  0
  7 23  1  0  0  0  0
  8 10  1  0  0  0  0
  8 24  1  0  0  0  0
  9 10  1  0  0  0  0
  9 13  2  0  0  0  0
 10 14  2  0  0  0  0
 11 15  1  0  0  0  0
 11 25  1  0  0  0  0
 12 16  1  0  0  0  0
 12 26  1  0  0  0  0
 13 17  1  0  0  0  0
 13 27  1  0  0  0  0
 14 18  1  0  0  0  0
 14 28  1  0  0  0  0
 15 16  2  0  0  0  0
 15 29  1  0  0  0  0
 16 30  1  0  0  0  0
 17 18  2  0  0  0  0
 17 31  1  0  0  0  0
 18 32  1  0  0  0  0
M  CHG  1   1   1
M  END
> <PUBCHEM_COMPOUND_CID>
114943

> <PUBCHEM_CONFORMER_RMSD>
0.6

> <PUBCHEM_CONFORMER_DIVERSEORDER>
1

> <PUBCHEM_MMFF94_PARTIAL_CHARGES>
25
1 -0.21
11 -0.15
12 -0.15
13 -0.15
14 -0.15
15 -0.15
16 -0.15
17 -0.15
18 -0.15
2 0.49
23 0.15
24 0.15
25 0.15
26 0.15
27 0.15
28 0.15
29 0.15
3 0.14
30 0.15
31 0.15
32 0.15
4 0.36
5 -0.14
7 0.21
8 -0.15

> <PUBCHEM_EFFECTIVE_ROTOR_COUNT>
0.4

> <PUBCHEM_PHARMACOPHORE_FEATURES>
4
6 1 2 3 4 5 6 rings
6 1 4 7 8 9 10 rings
6 5 6 11 12 15 16 rings
6 9 10 13 14 17 18 rings

> <PUBCHEM_HEAVY_ATOM_COUNT>
18

> <PUBCHEM_ATOM_DEF_STEREO_COUNT>
0

> <PUBCHEM_ATOM_UDEF_STEREO_COUNT>
0

> <PUBCHEM_BOND_DEF_STEREO_COUNT>
0

> <PUBCHEM_BOND_UDEF_STEREO_COUNT>
0

> <PUBCHEM_ISOTOPIC_ATOM_COUNT>
0

> <PUBCHEM_COMPONENT_COUNT>
1

> <PUBCHEM_CACTVS_TAUTO_COUNT>
1

> <PUBCHEM_CONFORMER_ID>
0001C0FF00000001

> <PUBCHEM_MMFF94_ENERGY>
58.6479

> <PUBCHEM_FEATURE_SELFOVERLAP>
20.377

> <PUBCHEM_SHAPE_FINGERPRINT>
10062212 137 18341048601221768567
10616163 171 18413109450417957334
10618630 7 18408886247735274197
10967382 1 18337954605143737878
11046707 91 18411136926525493865
11132069 177 18411978048768291088
11806522 49 18408040736352424606
12107183 9 17762902061179827282
12251169 10 18413390916772513069
12553582 1 18410565214876030319
13140716 1 18340493365097994499
13167823 11 18410855460302611938
13288520 33 18412266112446431870
13583140 156 14333403441555553071
138480 1 15024148119508228513
13862211 1 18409725183676499027
14115302 16 17531538666687042303
14178342 30 18193542373430868274
14790565 3 17688596382433687972
15196674 1 18410293605391426953
15375462 189 18260264131411476602
15375462 478 18343582953806161493
15442244 35 18338235951540513546
15536298 74 18341612637711998080
16945 1 18267305326571552269
17349148 13 17894347787385559218
17492 89 18338234864735362074
17804303 29 18343867718622410017
1813 80 17530969081051100356
18186145 218 17168139070137823571
18522853 276 18412262839333121184
19050596 39 18410855460355106186
19141452 34 18342459244723068687
19422 9 18410015420655051156
200 152 18342170090270856431
20261772 1 18060135478831324214
20281475 54 18409166576414607166
20510252 161 18129665192679040873
21267235 1 18410302418722717387
21421861 104 17970344811015962682
21501502 16 18409733928588298000
21673915 165 18411418414745984506
221490 88 18045789141496209619
22646028 28 18408885143897147434
2297311 6 18201732738351002044
23402539 116 18343294873512608495
23463225 33 18410013251490903469
23557571 272 18130233670571571204
23559900 14 18341887511271636728
26918003 58 17967250922728786955
2748010 2 17545892529379502077
2871803 45 18261105270786533310
335352 9 18338798905957863453
34934 24 18335134246671595249
350125 39 18411418432305941112
4214541 1 18411700941725893072
474 4 17604438534567609676
4921388 177 15936700366834817019
5104073 3 18411982455272810344
7364860 26 18268710700201208416
77779 3 18412265029951162346
8809292 202 18260552259461470115
9709674 26 18410581664822651342
9981440 41 17255399847624257065

> <PUBCHEM_SHAPE_MULTIPOLES>
365.45
9
2.21
0.67
2.19
0.39
0.01
-2.96
0.52
-0.72
-0.08
-0.07
0.03
-0.48

> <PUBCHEM_SHAPE_SELFOVERLAP>
828.364

> <PUBCHEM_SHAPE_VOLUME>
190

> <PUBCHEM_COORDINATE_TYPE>
2
5
10

$$$$
