@<TRIPOS>MOLECULE
carotenoPM7.pdb
96 97 1 0 0
SMALL
AMBER ff14SB


@<TRIPOS>ATOM
      1 C1          1.1170    1.0760    1.3280 C.3       1 HET   -0.0104
      2 C2         25.6800    1.0760    1.3280 C.3       1 HET   -0.0104
      3 C3         -0.2880    1.7220    1.3280 C.3       1 HET   -0.0437
      4 C4         26.8670    0.3340    1.9830 C.3       1 HET   -0.0437
      5 C5         -0.2020    3.2330    1.1050 C.3       1 HET   -0.0487
      6 C6         27.5100   -0.6500    1.0050 C.3       1 HET   -0.0487
      7 C7          2.0900    1.8960    2.1450 C.2       1 HET   -0.0434
      8 C8         24.7910    0.1130    0.5710 C.2       1 HET   -0.0434
      9 C9          0.5750    3.8800    2.2570 C.3       1 HET   -0.0317
     10 C10        26.4890   -1.7210    0.6070 C.3       1 HET   -0.0317
     11 C11         1.8510    3.1520    2.5500 C.2       1 HET   -0.0696
     12 C12        25.1640   -1.1300    0.2280 C.2       1 HET   -0.0696
     13 C13         1.6470    0.9780   -0.1140 C.3       1 HET   -0.0558
     14 C14         0.9910   -0.3410    1.9190 C.3       1 HET   -0.0558
     15 C15        26.2070    2.1380    0.3430 C.3       1 HET   -0.0558
     16 C16        24.8780    1.7710    2.4440 C.3       1 HET   -0.0558
     17 C17         3.3500    1.2160    2.4660 C.2       1 HET   -0.0583
     18 C18        23.4880    0.6690    0.1930 C.2       1 HET   -0.0583
     19 C19         2.8400    3.9440    3.3430 C.3       1 HET   -0.0433
     20 C20        24.2980   -2.0580   -0.5590 C.3       1 HET   -0.0433
     21 C21         4.4610    1.3760    1.7370 C.2       1 HET   -0.0590
     22 C22        22.3370    0.2780    0.7570 C.2       1 HET   -0.0590
     23 C23         5.7320    0.7250    2.0640 C.2       1 HET   -0.0511
     24 C24        21.0360    0.8480    0.4060 C.2       1 HET   -0.0511
     25 C25         5.6830   -0.7440    2.3180 C.3       1 HET   -0.0398
     26 C26        20.7960    1.1430   -1.0380 C.3       1 HET   -0.0398
     27 C27         6.8600    1.4590    2.1300 C.2       1 HET   -0.0593
     28 C28        20.1270    1.0830    1.3730 C.2       1 HET   -0.0593
     29 C29         8.1660    0.9220    2.4620 C.2       1 HET   -0.0617
     30 C30        18.8180    1.6640    1.1410 C.2       1 HET   -0.0617
     31 C31         9.2360    1.7090    2.6610 C.2       1 HET   -0.0593
     32 C32        17.8560    1.6690    2.0790 C.2       1 HET   -0.0593
     33 C33        10.5680    1.1930    2.9730 C.2       1 HET   -0.0511
     34 C34        16.5230    2.2280    1.8530 C.2       1 HET   -0.0511
     35 C35        10.6440    0.0140    3.8850 C.3       1 HET   -0.0398
     36 C36        16.4530    3.5200    1.1100 C.3       1 HET   -0.0398
     37 C37        11.6530    1.7830    2.4300 C.2       1 HET   -0.0593
     38 C38        15.4360    1.5680    2.3040 C.2       1 HET   -0.0593
     39 C39        13.0200    1.3470    2.6350 C.2       1 HET   -0.0620
     40 C40        14.0690    2.0060    2.1060 C.2       1 HET   -0.0620
     41 H31        -0.9180    1.2530    0.5520 H         1 HET    0.0276
     42 H32        -0.7900    1.5190    2.2930 H         1 HET    0.0276
     43 H41        27.6130    1.0620    2.3460 H         1 HET    0.0276
     44 H42        26.5130   -0.2120    2.8790 H         1 HET    0.0276
     45 H51        -1.2130    3.6710    1.0300 H         1 HET    0.0270
     46 H52         0.2980    3.4500    0.1420 H         1 HET    0.0270
     47 H61        28.4010   -1.1190    1.4580 H         1 HET    0.0270
     48 H62        27.8700   -0.1160    0.1060 H         1 HET    0.0270
     49 H91         0.7820    4.9430    2.0200 H         1 HET    0.0313
     50 H92        -0.0520    3.8940    3.1740 H         1 HET    0.0313
     51 H101       26.8940   -2.3320   -0.2250 H         1 HET    0.0313
     52 H102       26.3360   -2.4270    1.4510 H         1 HET    0.0313
     53 H131        0.9770    0.3890   -0.7460 H         1 HET    0.0239
     54 H132        2.6340    0.5020   -0.1400 H         1 HET    0.0239
     55 H133        1.7520    1.9700   -0.5650 H         1 HET    0.0239
     56 H141        1.9280   -0.8990    1.8250 H         1 HET    0.0239
     57 H142        0.2150   -0.9160    1.4040 H         1 HET    0.0239
     58 H143        0.7320   -0.3040    2.9820 H         1 HET    0.0239
     59 H151       25.3910    2.7430   -0.0660 H         1 HET    0.0239
     60 H152       26.7240    1.6700   -0.5010 H         1 HET    0.0239
     61 H153       26.9100    2.8180    0.8330 H         1 HET    0.0239
     62 H161       25.5200    2.4180    3.0500 H         1 HET    0.0239
     63 H162       24.4100    1.0370    3.1090 H         1 HET    0.0239
     64 H163       24.0750    2.3940    2.0340 H         1 HET    0.0239
     65 H17         3.3170    0.5760    3.3500 H         1 HET    0.0626
     66 H18        23.5270    1.4470   -0.5720 H         1 HET    0.0626
     67 H191        2.3550    4.5430    4.1240 H         1 HET    0.0276
     68 H192        3.3960    4.6340    2.6920 H         1 HET    0.0276
     69 H193        3.5860    3.3090    3.8440 H         1 HET    0.0276
     70 H201       24.2140   -3.0400   -0.0740 H         1 HET    0.0276
     71 H202       24.7120   -2.2200   -1.5650 H         1 HET    0.0276
     72 H203       23.2750   -1.6810   -0.6930 H         1 HET    0.0276
     73 H21         4.4790    2.0280    0.8620 H         1 HET    0.0626
     74 H22        22.3230   -0.4880    1.5350 H         1 HET    0.0626
     75 H251        6.4630   -1.2800    1.7590 H         1 HET    0.0280
     76 H252        4.7210   -1.1880    2.0240 H         1 HET    0.0280
     77 H253        5.8320   -0.9670    3.3850 H         1 HET    0.0280
     78 H261       20.9360    2.2130   -1.2490 H         1 HET    0.0280
     79 H262       19.7760    0.8760   -1.3480 H         1 HET    0.0280
     80 H263       21.4780    0.5880   -1.6970 H         1 HET    0.0280
     81 H27         6.8230    2.5330    1.9360 H         1 HET    0.0625
     82 H28        20.3580    0.8360    2.4120 H         1 HET    0.0625
     83 H29         8.2460   -0.1640    2.5370 H         1 HET    0.0623
     84 H30        18.6410    2.0980    0.1550 H         1 HET    0.0623
     85 H31         9.1640    2.7950    2.5790 H         1 HET    0.0625
     86 H32        18.0180    1.2280    3.0640 H         1 HET    0.0625
     87 H351        9.7350   -0.1030    4.4920 H         1 HET    0.0280
     88 H352       10.7800   -0.9170    3.3140 H         1 HET    0.0280
     89 H353       11.4840    0.0920    4.5900 H         1 HET    0.0280
     90 H361       17.4100    4.0600    1.1220 H         1 HET    0.0280
     91 H362       15.7030    4.2000    1.5380 H         1 HET    0.0280
     92 H363       16.1820    3.3540    0.0560 H         1 HET    0.0280
     93 H37        11.5290    2.6480    1.7740 H         1 HET    0.0625
     94 H38        15.5580    0.6290    2.8490 H         1 HET    0.0625
     95 H39        13.1670    0.4510    3.2390 H         1 HET    0.0623
     96 H40        13.9210    2.8990    1.4980 H         1 HET    0.0623
@<TRIPOS>BOND
     1    1    3 1
     2    1    7 1
     3    1   13 1
     4    1   14 1
     5    2    4 1
     6    2    8 1
     7    2   15 1
     8    2   16 1
     9    3    5 1
    10    3   41 1
    11    3   42 1
    12    4    6 1
    13    4   43 1
    14    4   44 1
    15    5    9 1
    16    5   45 1
    17    5   46 1
    18    6   10 1
    19    6   47 1
    20    6   48 1
    21    7   11 2
    22    7   17 2
    23    8   12 2
    24    8   18 2
    25    9   11 1
    26    9   49 1
    27    9   50 1
    28   10   12 1
    29   10   51 1
    30   10   52 1
    31   11   19 1
    32   12   20 1
    33   13   53 1
    34   13   54 1
    35   13   55 1
    36   14   56 1
    37   14   57 1
    38   14   58 1
    39   15   59 1
    40   15   60 1
    41   15   61 1
    42   16   62 1
    43   16   63 1
    44   16   64 1
    45   17   21 2
    46   17   65 1
    47   18   22 2
    48   18   66 1
    49   19   67 1
    50   19   68 1
    51   19   69 1
    52   20   70 1
    53   20   71 1
    54   20   72 1
    55   21   23 2
    56   21   73 1
    57   22   24 2
    58   22   74 1
    59   23   25 1
    60   23   27 2
    61   24   26 1
    62   24   28 2
    63   25   75 1
    64   25   76 1
    65   25   77 1
    66   26   78 1
    67   26   79 1
    68   26   80 1
    69   27   29 2
    70   27   81 1
    71   28   30 2
    72   28   82 1
    73   29   31 2
    74   29   83 1
    75   30   32 2
    76   30   84 1
    77   31   33 2
    78   31   85 1
    79   32   34 2
    80   32   86 1
    81   33   35 1
    82   33   37 2
    83   34   36 1
    84   34   38 2
    85   35   87 1
    86   35   88 1
    87   35   89 1
    88   36   90 1
    89   36   91 1
    90   36   92 1
    91   37   39 2
    92   37   93 1
    93   38   40 2
    94   38   94 1
    95   39   40 2
    96   39   95 1
    97   40   96 1
@<TRIPOS>SUBSTRUCTURE
     1 HET     1 RESIDUE           4 A     HET     0 ROOT
