REMARK  10 active torsions:
REMARK  status: ('A' for Active; 'I' for Inactive)
REMARK    1  A    between atoms: C7_7  and  C17_17 
REMARK    2  A    between atoms: C8_8  and  C18_18 
REMARK    3  A    between atoms: C21_21  and  C23_23 
REMARK    4  A    between atoms: C22_22  and  C24_24 
REMARK    5  A    between atoms: C27_27  and  C29_29 
REMARK    6  A    between atoms: C28_28  and  C30_30 
REMARK    7  A    between atoms: C31_31  and  C33_33 
REMARK    8  A    between atoms: C32_32  and  C34_34 
REMARK    9  A    between atoms: C37_37  and  C39_39 
REMARK   10  A    between atoms: C38_38  and  C40_40 
ROOT
ATOM      1  C39 HET A   1      13.020   1.347   2.635  0.00  0.00     0.000 C 
ATOM      2  C40 HET A   1      14.069   2.006   2.106  0.00  0.00     0.000 C 
ENDROOT
BRANCH   1   3
ATOM      3  C37 HET A   1      11.653   1.783   2.430  0.00  0.00     0.003 C 
ATOM      4  C33 HET A   1      10.568   1.193   2.973  0.00  0.00    -0.051 C 
ATOM      5  C35 HET A   1      10.644   0.014   3.885  0.00  0.00     0.044 C 
BRANCH   4   6
ATOM      6  C31 HET A   1       9.236   1.709   2.661  0.00  0.00     0.003 C 
ATOM      7  C29 HET A   1       8.166   0.922   2.462  0.00  0.00     0.001 C 
BRANCH   7   8
ATOM      8  C27 HET A   1       6.860   1.459   2.130  0.00  0.00     0.003 C 
ATOM      9  C23 HET A   1       5.732   0.725   2.064  0.00  0.00    -0.051 C 
ATOM     10  C25 HET A   1       5.683  -0.744   2.318  0.00  0.00     0.044 C 
BRANCH   9  11
ATOM     11  C21 HET A   1       4.461   1.376   1.737  0.00  0.00     0.004 C 
ATOM     12  C17 HET A   1       3.350   1.216   2.466  0.00  0.00     0.004 C 
BRANCH  12  13
ATOM     13  C7  HET A   1       2.090   1.896   2.145  0.00  0.00    -0.043 C 
ATOM     14  C1  HET A   1       1.117   1.076   1.328  0.00  0.00    -0.010 C 
ATOM     15  C3  HET A   1      -0.288   1.722   1.328  0.00  0.00     0.011 C 
ATOM     16  C13 HET A   1       1.647   0.978  -0.114  0.00  0.00     0.016 C 
ATOM     17  C14 HET A   1       0.991  -0.341   1.919  0.00  0.00     0.016 C 
ATOM     18  C5  HET A   1      -0.202   3.233   1.105  0.00  0.00     0.005 C 
ATOM     19  C9  HET A   1       0.575   3.880   2.257  0.00  0.00     0.031 C 
ATOM     20  C11 HET A   1       1.851   3.152   2.550  0.00  0.00    -0.070 C 
ATOM     21  C19 HET A   1       2.840   3.944   3.343  0.00  0.00     0.040 C 
ENDBRANCH  12  13
ENDBRANCH   9  11
ENDBRANCH   7   8
ENDBRANCH   4   6
ENDBRANCH   1   3
BRANCH   2  22
ATOM     22  C38 HET A   1      15.436   1.568   2.304  0.00  0.00     0.003 C 
ATOM     23  C34 HET A   1      16.523   2.228   1.853  0.00  0.00    -0.051 C 
ATOM     24  C36 HET A   1      16.453   3.520   1.110  0.00  0.00     0.044 C 
BRANCH  23  25
ATOM     25  C32 HET A   1      17.856   1.669   2.079  0.00  0.00     0.003 C 
ATOM     26  C30 HET A   1      18.818   1.664   1.141  0.00  0.00     0.001 C 
BRANCH  26  27
ATOM     27  C28 HET A   1      20.127   1.083   1.373  0.00  0.00     0.003 C 
ATOM     28  C24 HET A   1      21.036   0.848   0.406  0.00  0.00    -0.051 C 
ATOM     29  C26 HET A   1      20.796   1.143  -1.038  0.00  0.00     0.044 C 
BRANCH  28  30
ATOM     30  C22 HET A   1      22.337   0.278   0.757  0.00  0.00     0.004 C 
ATOM     31  C18 HET A   1      23.488   0.669   0.193  0.00  0.00     0.004 C 
BRANCH  31  32
ATOM     32  C8  HET A   1      24.791   0.113   0.571  0.00  0.00    -0.043 C 
ATOM     33  C2  HET A   1      25.680   1.076   1.328  0.00  0.00    -0.010 C 
ATOM     34  C4  HET A   1      26.867   0.334   1.983  0.00  0.00     0.011 C 
ATOM     35  C15 HET A   1      26.207   2.138   0.343  0.00  0.00     0.016 C 
ATOM     36  C16 HET A   1      24.878   1.771   2.444  0.00  0.00     0.016 C 
ATOM     37  C6  HET A   1      27.510  -0.650   1.005  0.00  0.00     0.005 C 
ATOM     38  C10 HET A   1      26.489  -1.721   0.607  0.00  0.00     0.031 C 
ATOM     39  C12 HET A   1      25.164  -1.130   0.228  0.00  0.00    -0.070 C 
ATOM     40  C20 HET A   1      24.298  -2.058  -0.559  0.00  0.00     0.040 C 
ENDBRANCH  31  32
ENDBRANCH  28  30
ENDBRANCH  26  27
ENDBRANCH  23  25
ENDBRANCH   2  22
TORSDOF 10
