6436805
  -OEChem-08292522323D

 51 53  0     1  0  0  0  0  0999 V2000
    3.8918    0.9895    1.5968 O   0  0  0  0  0  0  0  0  0  0  0  0
   -3.4049    1.4046   -0.5280 O   0  0  0  0  0  0  0  0  0  0  0  0
   -5.5198    0.8700    0.1879 O   0  0  0  0  0  0  0  0  0  0  0  0
    3.7460    0.2447    0.3839 C   0  0  2  0  0  0  0  0  0  0  0  0
    2.6311    1.1208    0.9171 C   0  0  2  0  0  0  0  0  0  0  0  0
    3.7622   -1.2396    0.5891 C   0  0  0  0  0  0  0  0  0  0  0  0
    2.4041    2.4930    0.3496 C   0  0  0  0  0  0  0  0  0  0  0  0
    4.6580    0.7575   -0.6823 C   0  0  0  0  0  0  0  0  0  0  0  0
    3.2639   -2.0115   -0.6356 C   0  0  0  0  0  0  0  0  0  0  0  0
    0.9431    2.9572    0.4203 C   0  0  0  0  0  0  0  0  0  0  0  0
   -0.0240    2.1668   -0.4432 C   0  0  0  0  0  0  0  0  0  0  0  0
    1.8015   -1.7813   -0.8828 C   0  0  0  0  0  0  0  0  0  0  0  0
   -2.1392    0.7304   -0.5640 C   0  0  1  0  0  0  0  0  0  0  0  0
   -1.1052    1.5853    0.1153 C   0  0  0  0  0  0  0  0  0  0  0  0
    0.7655   -2.5718   -0.5418 C   0  0  0  0  0  0  0  0  0  0  0  0
   -2.4069   -0.5571    0.1435 C   0  0  0  0  0  0  0  0  0  0  0  0
   -0.6474   -2.1075   -0.8345 C   0  0  0  0  0  0  0  0  0  0  0  0
   -1.3056   -1.5351    0.4282 C   0  0  0  0  0  0  0  0  0  0  0  0
    0.2910    2.1423   -1.9140 C   0  0  0  0  0  0  0  0  0  0  0  0
   -3.6940   -0.6505    0.4884 C   0  0  0  0  0  0  0  0  0  0  0  0
    0.8809   -3.8937    0.1628 C   0  0  0  0  0  0  0  0  0  0  0  0
   -4.3399    0.5961    0.0478 C   0  0  0  0  0  0  0  0  0  0  0  0
   -4.4520   -1.7099    1.1954 C   0  0  0  0  0  0  0  0  0  0  0  0
    1.7706    0.6665    1.3870 H   0  0  0  0  0  0  0  0  0  0  0  0
    3.1621   -1.5121    1.4672 H   0  0  0  0  0  0  0  0  0  0  0  0
    4.7891   -1.5564    0.8114 H   0  0  0  0  0  0  0  0  0  0  0  0
    2.7438    2.5500   -0.6896 H   0  0  0  0  0  0  0  0  0  0  0  0
    3.0107    3.2149    0.9114 H   0  0  0  0  0  0  0  0  0  0  0  0
    5.5792    0.1663   -0.7296 H   0  0  0  0  0  0  0  0  0  0  0  0
    4.1712    0.7032   -1.6613 H   0  0  0  0  0  0  0  0  0  0  0  0
    4.9613    1.7968   -0.5138 H   0  0  0  0  0  0  0  0  0  0  0  0
    3.4759   -3.0759   -0.4940 H   0  0  0  0  0  0  0  0  0  0  0  0
    3.8190   -1.7230   -1.5357 H   0  0  0  0  0  0  0  0  0  0  0  0
    0.8966    4.0071    0.1028 H   0  0  0  0  0  0  0  0  0  0  0  0
    0.6229    2.9453    1.4703 H   0  0  0  0  0  0  0  0  0  0  0  0
    1.5795   -0.8380   -1.3790 H   0  0  0  0  0  0  0  0  0  0  0  0
   -1.9065    0.5351   -1.6133 H   0  0  0  0  0  0  0  0  0  0  0  0
   -1.2541    1.7169    1.1873 H   0  0  0  0  0  0  0  0  0  0  0  0
   -0.6266   -1.3624   -1.6388 H   0  0  0  0  0  0  0  0  0  0  0  0
   -1.2426   -2.9423   -1.2255 H   0  0  0  0  0  0  0  0  0  0  0  0
   -0.5576   -1.0254    1.0501 H   0  0  0  0  0  0  0  0  0  0  0  0
   -1.6706   -2.3664    1.0418 H   0  0  0  0  0  0  0  0  0  0  0  0
   -0.5555    1.8370   -2.5329 H   0  0  0  0  0  0  0  0  0  0  0  0
    1.1227    1.4619   -2.1180 H   0  0  0  0  0  0  0  0  0  0  0  0
    0.5747    3.1442   -2.2547 H   0  0  0  0  0  0  0  0  0  0  0  0
    0.3143   -3.8779    1.0995 H   0  0  0  0  0  0  0  0  0  0  0  0
    1.9079   -4.1629    0.4182 H   0  0  0  0  0  0  0  0  0  0  0  0
    0.4773   -4.6913   -0.4696 H   0  0  0  0  0  0  0  0  0  0  0  0
   -3.8336   -2.5789    1.4342 H   0  0  0  0  0  0  0  0  0  0  0  0
   -5.2845   -2.0588    0.5758 H   0  0  0  0  0  0  0  0  0  0  0  0
   -4.8616   -1.3232    2.1340 H   0  0  0  0  0  0  0  0  0  0  0  0
  1  4  1  0  0  0  0
  1  5  1  0  0  0  0
  2 13  1  0  0  0  0
  2 22  1  0  0  0  0
  3 22  2  0  0  0  0
  4  5  1  0  0  0  0
  4  6  1  0  0  0  0
  4  8  1  0  0  0  0
  5  7  1  0  0  0  0
  5 24  1  0  0  0  0
  6  9  1  0  0  0  0
  6 25  1  0  0  0  0
  6 26  1  0  0  0  0
  7 10  1  0  0  0  0
  7 27  1  0  0  0  0
  7 28  1  0  0  0  0
  8 29  1  0  0  0  0
  8 30  1  0  0  0  0
  8 31  1  0  0  0  0
  9 12  1  0  0  0  0
  9 32  1  0  0  0  0
  9 33  1  0  0  0  0
 10 11  1  0  0  0  0
 10 34  1  0  0  0  0
 10 35  1  0  0  0  0
 11 14  2  0  0  0  0
 11 19  1  0  0  0  0
 12 15  2  0  0  0  0
 12 36  1  0  0  0  0
 13 14  1  0  0  0  0
 13 16  1  0  0  0  0
 13 37  1  0  0  0  0
 14 38  1  0  0  0  0
 15 17  1  0  0  0  0
 15 21  1  0  0  0  0
 16 18  1  0  0  0  0
 16 20  2  0  0  0  0
 17 18  1  0  0  0  0
 17 39  1  0  0  0  0
 17 40  1  0  0  0  0
 18 41  1  0  0  0  0
 18 42  1  0  0  0  0
 19 43  1  0  0  0  0
 19 44  1  0  0  0  0
 19 45  1  0  0  0  0
 20 22  1  0  0  0  0
 20 23  1  0  0  0  0
 21 46  1  0  0  0  0
 21 47  1  0  0  0  0
 21 48  1  0  0  0  0
 23 49  1  0  0  0  0
 23 50  1  0  0  0  0
 23 51  1  0  0  0  0
M  END
> <PUBCHEM_COMPOUND_CID>
6436805

> <PUBCHEM_CONFORMER_RMSD>
0.6

> <PUBCHEM_CONFORMER_DIVERSEORDER>
1
13
21
12
15
16
8
24
10
22
20
19
14
4
23
18
25
9
11
7
5
2
3
17
6

> <PUBCHEM_MMFF94_PARTIAL_CHARGES>
26
1 -0.3
10 0.14
11 -0.28
12 -0.29
13 0.56
14 -0.29
15 -0.28
16 -0.28
17 0.14
18 0.14
19 0.14
2 -0.43
20 -0.12
21 0.14
22 0.71
23 0.14
24 0.1
3 -0.57
36 0.15
38 0.15
4 -0.04
5 -0.05
6 0.09
7 0.09
8 0.09
9 0.14

> <PUBCHEM_EFFECTIVE_ROTOR_COUNT>
1.6

> <PUBCHEM_PHARMACOPHORE_FEATURES>
3
1 1 acceptor
1 3 acceptor
5 2 13 16 20 22 rings

> <PUBCHEM_HEAVY_ATOM_COUNT>
23

> <PUBCHEM_ATOM_DEF_STEREO_COUNT>
3

> <PUBCHEM_ATOM_UDEF_STEREO_COUNT>
0

> <PUBCHEM_BOND_DEF_STEREO_COUNT>
2

> <PUBCHEM_BOND_UDEF_STEREO_COUNT>
0

> <PUBCHEM_ISOTOPIC_ATOM_COUNT>
0

> <PUBCHEM_COMPONENT_COUNT>
1

> <PUBCHEM_CACTVS_TAUTO_COUNT>
1

> <PUBCHEM_CONFORMER_ID>
006237C500000001

> <PUBCHEM_MMFF94_ENERGY>
29.3634

> <PUBCHEM_FEATURE_SELFOVERLAP>
15.223

> <PUBCHEM_SHAPE_FINGERPRINT>
10616163 171 17904764736387813792
10708813 3 17986125014761528665
10759866 29 18113903745809633798
11112241 14 17416098763422980121
11370993 70 18129088082334385312
11578080 2 16589691367653978295
12011746 2 18342182154802433540
12403259 226 18122627150173003814
12422481 6 18266996484801717120
12553582 1 18339352072002424276
12592029 89 18412266151222301171
12596602 18 16486683774986626209
12633257 1 18340756135518452728
12645989 146 18057319475156054318
12788726 201 17774737419200998904
12838862 33 18268972285574618496
13075007 39 18115328759728155625
13140716 1 18339918324289375810
13402501 40 18411419480029755646
14114211 80 18198648655527385182
14170010 4 18410575055632542613
14617045 38 18411144618949324516
14790565 3 18266186208930416156
15006816 218 18412825793718672765
15196674 1 18410856559734910514
15463212 79 16598746219275898629
15635459 17 18410573942302018136
1601671 61 18409172138334140388
16110190 28 18264474256746567880
16728300 4 17391888398349263202
17093844 170 18340763763385833704
1813 80 17385445414443923237
18785283 64 18189353401691112925
19591789 44 18339360902286158843
19930381 70 18339921506944869411
20905425 154 17907859505343439686
21197605 99 18125160691509893131
23227448 37 18272085032772962567
23559900 14 18190182278385953006
3014063 31 18269274552044559572
3298306 158 18410848846258594277
338550 245 18193277618614316711
3524813 1 18341327782638444358
3680242 22 18191587441113208434
394222 165 16373579230214871734
44154327 71 18409451405824014836
5282274 181 18196087978755774944
59755656 215 18336259064584744405
6443956 14 18411422782422191585

> <PUBCHEM_SHAPE_MULTIPOLES>
455.72
8.99
3.91
1.16
4.9
1.47
-0.13
-0.6
2.13
-1.66
-0.35
-0.42
-0.25
1.05

> <PUBCHEM_SHAPE_SELFOVERLAP>
939.665

> <PUBCHEM_SHAPE_VOLUME>
263.2

> <PUBCHEM_COORDINATE_TYPE>
2
5
10

$$$$
