@<TRIPOS>MOLECULE
sarcophine.pdb
51 53 1 0 0
SMALL
AMBER ff14SB


@<TRIPOS>ATOM
      1 O1          0.6770   -0.3300   -0.3020 O.3       1 HET   -0.3663
      2 O2          7.8670   -0.3300   -0.3020 O.3       1 HET   -0.3003
      3 O3          9.5000    1.1960   -0.3020 O.2       1 HET   -0.2610
      4 C1          0.7010   -1.2680   -1.3860 C.3       1 HET    0.0923
      5 C2          1.9070   -1.0280   -0.5260 C.3       1 HET    0.0874
      6 C3          0.6290   -0.6300   -2.7550 C.3       1 HET   -0.0181
      7 C4          2.3070   -2.0110    0.5440 C.3       1 HET   -0.0201
      8 C5         -0.1570   -2.4860   -1.1890 C.3       1 HET   -0.0332
      9 C6          1.3890   -1.4560   -3.8070 C.3       1 HET   -0.0320
     10 C7          3.6530   -1.6490    1.1870 C.3       1 HET   -0.0296
     11 C8          4.7850   -1.7100    0.2030 C.2       1 HET   -0.0743
     12 C9          2.8600   -1.3500   -3.5770 C.2       1 HET   -0.0855
     13 C10         6.6400   -0.5710   -1.0280 C.3       1 HET    0.1078
     14 C11         5.5230   -0.6200   -0.0470 C.2       1 HET   -0.0521
     15 C12         3.6690   -0.4700   -4.1810 C.2       1 HET   -0.0770
     16 C13         6.5130    0.6130   -1.9790 C.2       1 HET   -0.0278
     17 C14         5.1210   -0.3920   -3.8050 C.3       1 HET   -0.0284
     18 C15         5.3180    0.7820   -2.8260 C.3       1 HET   -0.0246
     19 C16         5.0210   -3.0310   -0.4490 C.3       1 HET   -0.0438
     20 C17         7.5820    1.4140   -1.8240 C.2       1 HET    0.0236
     21 C18         3.2160    0.4970   -5.2220 C.3       1 HET   -0.0439
     22 C19         8.4580    0.8340   -0.7660 C.2       1 HET    0.2892
     23 C20         7.9540    2.6710   -2.4860 C.3       1 HET   -0.0337
     24 H2          2.7140   -0.3890   -0.9040 H         1 HET    0.0634
     25 H31         1.0400    0.4010   -2.7160 H         1 HET    0.0300
     26 H32        -0.4290   -0.5080   -3.0590 H         1 HET    0.0300
     27 H41         2.3480   -3.0340    0.1180 H         1 HET    0.0297
     28 H42         1.5220   -2.0430    1.3300 H         1 HET    0.0297
     29 H51        -1.1470   -2.3620   -1.6500 H         1 HET    0.0261
     30 H52         0.3080   -3.3760   -1.6290 H         1 HET    0.0261
     31 H53        -0.3330   -2.6890   -0.1230 H         1 HET    0.0261
     32 H61         1.1110   -1.1100   -4.8230 H         1 HET    0.0311
     33 H62         1.0650   -2.5160   -3.7660 H         1 HET    0.0311
     34 H71         3.8620   -2.3390    2.0330 H         1 HET    0.0313
     35 H72         3.5780   -0.6420    1.6520 H         1 HET    0.0313
     36 H9          3.2430   -2.0420   -2.8280 H         1 HET    0.0575
     37 H10         6.8240   -1.5260   -1.5670 H         1 HET    0.0705
     38 H11         5.3520    0.3200    0.4780 H         1 HET    0.0606
     39 H141        5.4620   -1.3410   -3.3490 H         1 HET    0.0316
     40 H142        5.7590   -0.2570   -4.7000 H         1 HET    0.0316
     41 H151        4.4190    0.8710   -2.1680 H         1 HET    0.0317
     42 H152        5.3540    1.7370   -3.3910 H         1 HET    0.0317
     43 H161        6.0880   -3.3010   -0.4490 H         1 HET    0.0276
     44 H162        4.6790   -3.0300   -1.4940 H         1 HET    0.0276
     45 H163        4.4960   -3.8520    0.0580 H         1 HET    0.0276
     46 H181        3.9070    1.3410   -5.3440 H         1 HET    0.0276
     47 H182        2.2290    0.9240   -4.9900 H         1 HET    0.0276
     48 H183        3.1330    0.0050   -6.2030 H         1 HET    0.0276
     49 H201        7.3320    2.8920   -3.3640 H         1 HET    0.0282
     50 H202        9.0060    2.6540   -2.8240 H         1 HET    0.0282
     51 H203        7.8680    3.5290   -1.7960 H         1 HET    0.0282
@<TRIPOS>BOND
     1    1    4 1
     2    1    5 1
     3    2   13 1
     4    2   22 1
     5    3   22 2
     6    4    5 1
     7    4    6 1
     8    4    8 1
     9    5    7 1
    10    5   24 1
    11    6    9 1
    12    6   25 1
    13    6   26 1
    14    7   10 1
    15    7   27 1
    16    7   28 1
    17    8   29 1
    18    8   30 1
    19    8   31 1
    20    9   12 1
    21    9   32 1
    22    9   33 1
    23   10   11 1
    24   10   34 1
    25   10   35 1
    26   11   14 2
    27   11   19 1
    28   12   15 2
    29   12   36 1
    30   13   14 1
    31   13   16 1
    32   13   37 1
    33   14   38 1
    34   15   17 1
    35   15   21 1
    36   16   18 1
    37   16   20 2
    38   17   18 1
    39   17   39 1
    40   17   40 1
    41   18   41 1
    42   18   42 1
    43   19   43 1
    44   19   44 1
    45   19   45 1
    46   20   22 2
    47   20   23 1
    48   21   46 1
    49   21   47 1
    50   21   48 1
    51   23   49 1
    52   23   50 1
    53   23   51 1
@<TRIPOS>SUBSTRUCTURE
     1 HET     1 RESIDUE           4 A     HET     0 ROOT
