REMARK  1 active torsions:
REMARK  status: ('A' for Active; 'I' for Inactive)
REMARK    1  A    between atoms: O3_3  and  C10_16 
ROOT
ATOM      1  O1  HET A   1      -0.006   0.001  -0.018  0.00  0.00    -0.315 OA
ATOM      2  O2  HET A   1       2.225   0.001  -0.018  0.00  0.00    -0.316 OA
ATOM      3  O4  HET A   1      -6.108   7.564   0.014  0.00  0.00    -0.316 OA
ATOM      4  O5  HET A   1      -4.975   9.496   0.004  0.00  0.00    -0.316 OA
ATOM      5  N   HET A   1      -2.472   3.471  -0.070  0.00  0.00    -0.309 N 
ATOM      6  C1  HET A   1      -1.926   4.760  -0.047  0.00  0.00     0.048 A 
ATOM      7  C2  HET A   1      -0.476   4.880  -0.035  0.00  0.00     0.007 A 
ATOM      8  C3  HET A   1       0.370   3.704  -0.022  0.00  0.00     0.025 A 
ATOM      9  C4  HET A   1      -0.293   2.449  -0.015  0.00  0.00     0.032 A 
ATOM     10  C5  HET A   1      -2.729   5.991  -0.039  0.00  0.00     0.007 A 
ATOM     11  C6  HET A   1      -2.052   7.258  -0.041  0.00  0.00    -0.014 A 
ATOM     12  C7  HET A   1      -1.684   2.368  -0.053  0.00  0.00     0.086 A 
ATOM     13  C8  HET A   1       0.437   1.267  -0.004  0.00  0.00     0.118 A 
ATOM     14  C9  HET A   1       0.099   6.171  -0.047  0.00  0.00     0.011 A 
ATOM     15  C10 HET A   1       1.822   3.665  -0.016  0.00  0.00     0.086 A 
ATOM     16  C11 HET A   1      -0.654   7.314  -0.054  0.00  0.00     0.010 A 
ATOM     17  C12 HET A   1      -4.165   6.068  -0.020  0.00  0.00     0.047 A 
ATOM     18  C13 HET A   1       1.788   1.264  -0.003  0.00  0.00     0.112 A 
ATOM     19  C14 HET A   1      -2.743   8.495  -0.027  0.00  0.00     0.045 A 
ATOM     20  C15 HET A   1       2.520   2.426  -0.015  0.00  0.00     0.070 A 
ATOM     21  C16 HET A   1      -4.793   7.304  -0.008  0.00  0.00     0.109 A 
ATOM     22  C17 HET A   1      -3.906   3.152  -0.063  0.00  0.00     0.136 C 
ATOM     23  C18 HET A   1      -4.107   8.465  -0.010  0.00  0.00     0.109 A 
ATOM     24  C19 HET A   1       1.114  -0.841  -0.014  0.00  0.00     0.337 A 
ATOM     25  C20 HET A   1      -6.263   8.960   0.019  0.00  0.00     0.337 A 
ENDROOT
BRANCH  15  26
ATOM     26  O3  HET A   1       2.548   4.804  -0.018  0.00  0.00    -0.349 OA
ATOM     27  C21 HET A   1       3.930   4.906  -0.025  0.00  0.00     0.203 C 
ENDBRANCH  15  26
TORSDOF 1
