REMARK  0 active torsions:
REMARK  status: ('A' for Active; 'I' for Inactive)
ROOT
ATOM      1  O1  HET A   1       0.354   0.083   0.159  0.00  0.00    -0.373 OA
ATOM      2  O2  HET A   1       4.926   0.083   0.159  0.00  0.00    -0.277 OA
ATOM      3  N1  HET A   1       0.100   4.975   0.159  0.00  0.00     0.253 N 
ATOM      4  N2  HET A   1       3.525   1.818  -0.243  0.00  0.00    -0.267 N 
ATOM      5  C1  HET A   1       2.308   3.910  -0.067  0.00  0.00     0.063 C 
ATOM      6  C2  HET A   1       2.154   2.348  -0.016  0.00  0.00     0.104 C 
ATOM      7  C3  HET A   1       1.422   4.694   0.924  0.00  0.00     0.076 C 
ATOM      8  C4  HET A   1       1.675   1.770   1.329  0.00  0.00     0.048 C 
ATOM      9  C5  HET A   1       0.519   2.590   1.906  0.00  0.00     0.033 C 
ATOM     10  C6  HET A   1       1.121   3.973   2.228  0.00  0.00     0.064 C 
ATOM     11  C7  HET A   1       1.852   4.439  -1.446  0.00  0.00     0.070 C 
ATOM     12  C8  HET A   1       3.784   4.108   0.093  0.00  0.00    -0.013 A 
ATOM     13  C9  HET A   1       0.348   4.645  -1.312  0.00  0.00     0.130 C 
ATOM     14  C10 HET A   1       1.401   0.273   1.095  0.00  0.00     0.133 C 
ATOM     15  C11 HET A   1      -0.650   2.747   0.977  0.00  0.00    -0.025 C 
ATOM     16  C12 HET A   1      -1.063   4.165   0.706  0.00  0.00     0.161 C 
ATOM     17  C13 HET A   1       4.455   2.870  -0.056  0.00  0.00     0.040 A 
ATOM     18  C14 HET A   1       2.592  -0.402   0.386  0.00  0.00     0.130 C 
ATOM     19  C15 HET A   1       3.788   0.479   0.121  0.00  0.00     0.222 C 
ATOM     20  C16 HET A   1      -1.337   1.730   0.447  0.00  0.00     0.006 C 
ATOM     21  C17 HET A   1       4.506   5.273   0.280  0.00  0.00     0.006 A 
ATOM     22  C18 HET A   1      -0.956   0.295   0.641  0.00  0.00     0.188 C 
ATOM     23  C19 HET A   1       5.843   2.791  -0.035  0.00  0.00     0.024 A 
ATOM     24  C20 HET A   1       5.901   5.197   0.323  0.00  0.00     0.001 A 
ATOM     25  C21 HET A   1       6.554   3.975   0.160  0.00  0.00     0.002 A 
ATOM     26  H1  HET A   1      -0.127   5.992   0.253  0.00  0.00     0.201 HD
ENDROOT
TORSDOF 0
