REMARK  1 active torsions:
REMARK  status: ('A' for Active; 'I' for Inactive)
REMARK    1  A    between atoms: N1_2  and  C1_4 
ROOT
ATOM      1  O   HET A   1      -0.279  -0.097  -0.343  0.00  0.00    -0.272 OA
ATOM      2  N2  HET A   1       1.415   1.377  -0.343  0.00  0.00    -0.285 N 
ATOM      3  C1  HET A   1       5.090   1.059  -1.025  0.00  0.00     0.037 C 
ATOM      4  C2  HET A   1       4.503   3.425  -0.903  0.00  0.00     0.049 C 
ATOM      5  C3  HET A   1       5.435   2.373  -0.366  0.00  0.00    -0.013 C 
ATOM      6  C4  HET A   1       5.517   1.133  -2.503  0.00  0.00     0.098 C 
ATOM      7  C5  HET A   1       3.648   0.710  -0.869  0.00  0.00     0.024 A 
ATOM      8  C6  HET A   1       3.106   3.130  -0.315  0.00  0.00     0.064 C 
ATOM      9  C7  HET A   1       2.730   1.691  -0.512  0.00  0.00     0.020 A 
ATOM     10  C8  HET A   1       4.915   2.365  -3.133  0.00  0.00    -0.070 C 
ATOM     11  C9  HET A   1       4.464   3.392  -2.403  0.00  0.00    -0.019 C 
ATOM     12  C10 HET A   1       6.407   2.595   0.524  0.00  0.00    -0.024 C 
ATOM     13  C11 HET A   1       3.166  -0.593  -1.204  0.00  0.00     0.017 A 
ATOM     14  C12 HET A   1       4.859   2.347  -4.617  0.00  0.00     0.039 C 
ATOM     15  C13 HET A   1       1.861  -0.919  -1.049  0.00  0.00     0.069 A 
ATOM     16  C14 HET A   1       0.895   0.047  -0.565  0.00  0.00     0.240 A 
ATOM     17  C15 HET A   1       6.719   3.913   1.131  0.00  0.00     0.036 C 
ATOM     18  H22 HET A   1       0.737   2.094  -0.068  0.00  0.00     0.156 HD
ENDROOT
BRANCH   3  19
ATOM     19  N1  HET A   1       5.899  -0.097  -0.343  0.00  0.00     0.243 N 
ATOM     20  H11 HET A   1       5.753  -0.984  -0.849  0.00  0.00     0.197 HD
ATOM     21  H12 HET A   1       5.563  -0.215   0.628  0.00  0.00     0.197 HD
ATOM     22  H13 HET A   1       6.907   0.116  -0.331  0.00  0.00     0.197 HD
ENDBRANCH   3  19
TORSDOF 1
