REMARK  6 active torsions:
REMARK  status: ('A' for Active; 'I' for Inactive)
REMARK    1  A    between atoms: O2_2  and  C16_20 
REMARK    2  A    between atoms: O3_3  and  C17_21 
REMARK    3  A    between atoms: N_4  and  C12_16 
REMARK    4  A    between atoms: C1_5  and  C2_6 
REMARK    5  A    between atoms: C2_6  and  C3_7 
REMARK    6  A    between atoms: C12_16  and  C15_19 
ROOT
HETATM    1  C2  HET A   1       0.181  -2.605   1.130  1.00 -2.90     0.017 C 
ENDROOT
BRANCH   1   2
HETATM    2  C1  HET A   1      -0.061  -4.120   1.081  1.00 -0.95    -0.011 C 
HETATM    3  C5  HET A   1      -0.818  -4.523  -0.196  1.00 -3.14     0.032 C 
HETATM    4  C7  HET A   1      -1.056  -6.029  -0.227  1.00 -1.71     0.235 C 
HETATM    5  N   HET A   1      -1.876  -6.448   0.982  1.00 -1.14    -0.067 N 
HETATM    6  C6  HET A   1      -1.141  -6.075   2.260  1.00 -1.68     0.235 C 
HETATM    7  H   HET A   1      -2.794  -5.934   0.951  1.00  3.03     0.280 HD
HETATM    8  C4  HET A   1      -0.884  -4.569   2.301  1.00 -3.17     0.032 C 
BRANCH   5   9
HETATM    9  C12 HET A   1      -2.143  -7.947   0.948  1.00 -1.78     0.273 C 
BRANCH   9  10
HETATM   10  C15 HET A   1      -3.099  -8.243  -0.167  1.00 -1.10    -0.033 A 
HETATM   11  C19 HET A   1      -2.655  -8.900  -1.315  1.00 -1.37     0.009 A 
HETATM   12  C21 HET A   1      -3.552  -9.171  -2.347  1.00 -1.27     0.001 A 
HETATM   13  C22 HET A   1      -4.885  -8.783  -2.228  1.00 -1.00     0.000 A 
HETATM   14  C20 HET A   1      -5.329  -8.136  -1.074  1.00 -1.23     0.001 A 
HETATM   15  C18 HET A   1      -4.439  -7.868  -0.038  1.00 -1.59     0.009 A 
ENDBRANCH   9  10
ENDBRANCH   5   9
ENDBRANCH   1   2
BRANCH   1  16
HETATM   16  C3  HET A   1       1.109  -2.129   0.014  1.00 -2.25     0.065 A 
HETATM   17  C8  HET A   1       2.565  -2.647   0.146  1.00 -2.93     0.052 A 
HETATM   18  C10 HET A   1       3.415  -1.409   0.128  1.00  0.68    -0.041 A 
HETATM   19  C13 HET A   1       4.804  -1.353   0.118  1.00 -3.15     0.047 A 
HETATM   20  C11 HET A   1       2.643  -0.246   0.109  1.00 -2.15     0.019 A 
HETATM   21  C16 HET A   1       5.405  -0.095   0.097  1.00  2.20     0.102 A 
HETATM   22  C17 HET A   1       4.613   1.096   0.096  1.00  1.16     0.102 A 
HETATM   23  C14 HET A   1       3.229   1.019   0.100  1.00 -1.55     0.055 A 
HETATM   24  C9  HET A   1       1.219  -0.587   0.076  1.00  4.84     0.164 A 
HETATM   25  O1  HET A   1       0.264   0.138   0.081  1.00 -4.36    -0.292 OA
BRANCH  21  26
HETATM   26  O2  HET A   1       6.736   0.138   0.081  1.00 -2.48    -0.353 OA
HETATM   27  C23 HET A   1       7.592  -0.998   0.013  1.00 -2.19     0.210 C 
ENDBRANCH  21  26
BRANCH  22  28
HETATM   28  O3  HET A   1       5.353   2.235   0.081  1.00 -2.63    -0.353 OA
HETATM   29  C24 HET A   1       4.633   3.462   0.076  1.00 -2.14     0.210 C 
ENDBRANCH  22  28
ENDBRANCH   1  16
TORSDOF 6
